1
                    3D
 Schrodinger Suite 2021-1.
 77 80  0  0  1  0            999 V2000
    1.1465   -0.5829    4.2977 C   0  0  0  0  0  0
    1.4937    0.8673    3.9253 C   0  0  0  0  0  0
    0.3719    1.8937    4.2230 C   0  0  0  0  0  0
    0.8930    3.3424    4.0443 C   0  0  0  0  0  0
   -0.0987    4.4378    4.4687 C   0  0  0  0  0  0
   -0.9203    1.6192    3.4153 C   0  0  0  0  0  0
   -0.6944    1.7821    2.0196 O   0  0  0  0  0  0
   -1.7096    1.6828    1.1337 C   0  0  0  0  0  0
   -2.8867    1.4477    1.4212 O   0  0  0  0  0  0
   -1.2174    1.8998   -0.2835 C   0  0  2  0  0  0
   -2.2706    2.6174   -1.1515 C   0  0  0  0  0  0
   -0.7904    0.6353   -0.8793 N   0  0  3  0  0  0
    0.8186    0.0873   -0.8380 P   0  0  2  0  0  0
    1.8792    1.0820   -1.1597 O   0  0  0  0  0  0
    0.7924   -1.2243   -1.8068 O   0  0  0  0  0  0
    0.7197   -1.0843   -3.2163 C   0  0  0  0  0  0
    1.8949   -1.8442   -3.8538 C   0  0  1  0  0  0
    1.7268   -1.8113   -5.2647 O   0  0  0  0  0  0
    2.9578   -2.1546   -5.9021 C   0  0  2  0  0  0
    2.9418   -3.6223   -6.0953 C   0  0  0  0  0  0
    2.9285   -4.7703   -6.2452 N   0  0  0  0  0  0
    4.0628   -1.6950   -4.9028 C   0  0  2  0  0  0
    5.0156   -2.7012   -4.5821 O   0  0  0  0  0  0
    3.2736   -1.1973   -3.6824 C   0  0  2  0  0  0
    3.8493   -1.4669   -2.4152 O   0  0  0  0  0  0
    3.0100   -1.4452   -7.2590 C   0  0  0  0  0  0
    3.1873   -1.9581   -8.5457 C   0  0  0  0  0  0
    3.1780   -0.9427   -9.4867 C   0  0  0  0  0  0
    2.9766    0.2618   -8.7713 C   0  0  0  0  0  0
    2.8697   -0.0705   -7.3974 N   0  0  0  0  0  0
    2.6655    0.8152   -6.3962 N   0  0  0  0  0  0
    2.5705    2.1005   -6.8135 C   0  0  0  0  0  0
    2.6580    2.5579   -8.0839 N   0  0  0  0  0  0
    2.8601    1.6370   -9.0571 C   0  0  0  0  0  0
    2.9503    2.1048  -10.3661 N   0  0  0  0  0  0
    0.9335   -0.5639    0.6513 O   0  0  0  0  0  0
    1.8475   -1.5246    0.9883 C   0  0  0  0  0  0
    3.2171   -1.2536    0.9403 C   0  0  0  0  0  0
    4.1307   -2.2370    1.3093 C   0  0  0  0  0  0
    3.6697   -3.4821    1.7330 C   0  0  0  0  0  0
    2.3036   -3.7519    1.7932 C   0  0  0  0  0  0
    1.3904   -2.7684    1.4228 C   0  0  0  0  0  0
    2.0001   -1.2393    4.1269 H   0  0  0  0  0  0
    0.3193   -0.9660    3.7004 H   0  0  0  0  0  0
    0.8715   -0.6678    5.3493 H   0  0  0  0  0  0
    2.3936    1.1474    4.4747 H   0  0  0  0  0  0
    1.7689    0.9130    2.8707 H   0  0  0  0  0  0
    0.1117    1.7803    5.2766 H   0  0  0  0  0  0
    1.8056    3.4696    4.6284 H   0  0  0  0  0  0
    1.1834    3.5070    3.0055 H   0  0  0  0  0  0
    0.3608    5.4239    4.3946 H   0  0  0  0  0  0
   -0.4223    4.3017    5.5011 H   0  0  0  0  0  0
   -0.9858    4.4460    3.8350 H   0  0  0  0  0  0
   -1.2848    0.6108    3.6142 H   0  0  0  0  0  0
   -1.7120    2.2938    3.7445 H   0  0  0  0  0  0
   -0.3396    2.5467   -0.2350 H   0  0  0  0  0  0
   -2.5587    3.5772   -0.7200 H   0  0  0  0  0  0
   -3.1769    2.0217   -1.2735 H   0  0  0  0  0  0
   -1.8780    2.8206   -2.1485 H   0  0  0  0  0  0
   -1.4851    0.1454   -1.4440 H   0  0  0  0  0  0
   -0.2286   -1.5054   -3.5520 H   0  0  0  0  0  0
    0.7282   -0.0364   -3.5242 H   0  0  0  0  0  0
    1.8705   -2.8843   -3.5206 H   0  0  0  0  0  0
    4.6276   -0.8529   -5.3060 H   0  0  0  0  0  0
    4.5459   -3.4818   -4.2785 H   0  0  0  0  0  0
    3.1535   -0.1162   -3.7746 H   0  0  0  0  0  0
    4.7546   -1.1473   -2.4195 H   0  0  0  0  0  0
    3.3208   -3.0046   -8.7791 H   0  0  0  0  0  0
    3.3009   -1.0738  -10.5516 H   0  0  0  0  0  0
    2.4087    2.8430   -6.0459 H   0  0  0  0  0  0
    3.0998    1.4510  -11.1207 H   0  0  0  0  0  0
    2.8662    3.0957  -10.5416 H   0  0  0  0  0  0
    3.5694   -0.2849    0.6176 H   0  0  0  0  0  0
    5.1907   -2.0344    1.2689 H   0  0  0  0  0  0
    4.3783   -4.2449    2.0202 H   0  0  0  0  0  0
    1.9549   -4.7181    2.1270 H   0  0  0  0  0  0
    0.3300   -2.9682    1.4710 H   0  0  0  0  0  0
  1  2  1  0  0  0
  1 43  1  0  0  0
  1 44  1  0  0  0
  1 45  1  0  0  0
  2  3  1  0  0  0
  2 46  1  0  0  0
  2 47  1  0  0  0
  3  4  1  0  0  0
  3  6  1  0  0  0
  3 48  1  0  0  0
  4  5  1  0  0  0
  4 49  1  0  0  0
  4 50  1  0  0  0
  5 51  1  0  0  0
  5 52  1  0  0  0
  5 53  1  0  0  0
  6  7  1  0  0  0
  6 54  1  0  0  0
  6 55  1  0  0  0
  7  8  1  0  0  0
  8  9  2  0  0  0
  8 10  1  0  0  0
 10 11  1  0  0  0
 10 12  1  0  0  0
 10 56  1  0  0  0
 11 57  1  0  0  0
 11 58  1  0  0  0
 11 59  1  0  0  0
 12 13  1  0  0  0
 12 60  1  0  0  0
 13 14  2  0  0  0
 13 15  1  0  0  0
 13 36  1  0  0  0
 15 16  1  0  0  0
 16 17  1  0  0  0
 16 61  1  0  0  0
 16 62  1  0  0  0
 17 18  1  0  0  0
 17 24  1  0  0  0
 17 63  1  0  0  0
 18 19  1  0  0  0
 19 20  1  0  0  0
 19 22  1  0  0  0
 19 26  1  0  0  0
 20 21  3  0  0  0
 22 23  1  0  0  0
 22 24  1  0  0  0
 22 64  1  0  0  0
 23 65  1  0  0  0
 24 25  1  0  0  0
 24 66  1  0  0  0
 25 67  1  0  0  0
 26 27  2  0  0  0
 26 30  1  0  0  0
 27 28  1  0  0  0
 27 68  1  0  0  0
 28 29  2  0  0  0
 28 69  1  0  0  0
 29 30  1  0  0  0
 29 34  1  0  0  0
 30 31  1  0  0  0
 31 32  2  0  0  0
 32 33  1  0  0  0
 32 70  1  0  0  0
 33 34  2  0  0  0
 34 35  1  0  0  0
 35 71  1  0  0  0
 35 72  1  0  0  0
 36 37  1  0  0  0
 37 38  2  0  0  0
 37 42  1  0  0  0
 38 39  1  0  0  0
 38 73  1  0  0  0
 39 40  2  0  0  0
 39 74  1  0  0  0
 40 41  1  0  0  0
 40 75  1  0  0  0
 41 42  2  0  0  0
 41 76  1  0  0  0
 42 77  1  0  0  0
M  END
> <s_m_entry_id>
1

> <s_m_entry_name>
121304016.1

> <i_lp_mmshare_version>
47013

> <i_f3d_flags>
0

> <s_epik_input>
W0NIM11bQ0gyXVtDSF0oW0NIMl1bQ0gzXSlbQ0gyXU9DKD1PKVtDQEhdKFtDSDNdKVtOSF1bUEBAXSg9TykoT2MxW2NIXVtjSF1bY0hdW2NIXVtjSF0xKU9bQ0gyXVtDQEhdKFtDQEBIXShbT0hdKVtDQEhdMltPSF0pT1tDQEBdMihDI04pYyhbY0hdW2NIXTMpbihjMzQpbltjSF1uYzRbTkgyXQ==

> <s_epik_cmdline>
J2VwaWtfcHl0aG9uJywgJy1waCcsICc3LjQnLCAnLXRuJywgJzgnLCAnLW1hJywgJzIwMCcsICctaW1hZScsICc8aW5maWxlLm1hZT4nLCAnLW9tYWUnLCAnPG91dGZpbGUubWFlPic=

> <r_epik_Ionization_Penalty>
  0.0018

> <r_epik_Ionization_Penalty_Charging>
  0.0000

> <r_epik_Ionization_Penalty_Neutral>
  0.0018

> <r_epik_State_Penalty>
  0.0000

> <r_epik_Charging_Adjusted_Penalty>
0

> <i_epik_Tot_Q>
0

> <i_epik_Tot_abs_Q>
0

> <s_lp_Force_Field>
OPLS3e

> <r_lp_Energy>
29.93444

> <b_lp_Chiralities_Consistent>
1

> <s_lp_Variant>
CE1_121304016-1

> <s_m_job_name>
ligprep_2

> <s_m_Source_Path>
/home/andre/Documents/projects/Esterase/data/FINAL_STUFF/Compounds/MAE_external

> <s_m_Source_File>
1.mae

> <i_m_Source_File_Index>
1

> <r_lp_tautomer_probability>
1

> <s_epik_Chemistry_Notes>
This compound has an ester and may undergo hydrolysis at high or low pH.

$$$$
