100
                    3D
 Schrodinger Suite 2021-1.
 37 39  0  0  1  0            999 V2000
   -2.1890   -1.1374    0.0430 C   0  0  0  0  0  0
   -0.7949   -1.1260    0.0921 C   0  0  0  0  0  0
   -0.0961    0.0329    0.4499 C   0  0  0  0  0  0
   -0.8290    1.1899    0.7512 C   0  0  0  0  0  0
   -2.2231    1.1857    0.7037 C   0  0  0  0  0  0
   -2.9125    0.0176    0.3597 C   0  0  0  0  0  0
   -2.9028    2.3199    0.9932 F   0  0  0  0  0  0
   -2.8346   -2.2734   -0.3099 F   0  0  0  0  0  0
   -4.2896    0.0141    0.3041 O   0  0  0  0  0  0
   -5.0065   -0.3083    1.4213 C   0  0  0  0  0  0
   -6.4413   -0.2358    1.1517 C   0  0  0  0  0  0
   -4.5292   -0.6199    2.5170 O   0  0  0  0  0  0
    1.3837   -0.0241    0.4980 C   0  0  0  0  0  0
    2.2304    0.8128    1.1478 C   0  0  0  0  0  0
    2.0282    1.8885    1.9360 N   0  0  0  0  0  0
    3.1603    2.3119    2.2966 C   0  0  0  0  0  0
    4.1671    1.5701    1.7966 N   0  0  0  0  0  0
    3.6526    0.5830    1.0466 C   0  0  0  0  0  0
    4.2675   -0.2931    0.4315 O   0  0  0  0  0  0
    3.4206    3.5130    3.1882 C   0  0  0  0  0  0
    5.6114    1.7225    1.9764 C   0  0  0  0  0  0
   -7.1141    0.0960   -0.0272 C   0  0  0  0  0  0
   -8.5066    0.0580    0.1009 C   0  0  0  0  0  0
   -8.9150   -0.3005    1.3761 C   0  0  0  0  0  0
   -7.5712   -0.5973    2.4301 S   0  0  0  0  0  0
   -0.2572   -2.0321   -0.1487 H   0  0  0  0  0  0
   -0.3324    2.1110    1.0133 H   0  0  0  0  0  0
    1.8054   -0.8371   -0.0797 H   0  0  0  0  0  0
    4.0034    4.2696    2.6626 H   0  0  0  0  0  0
    3.9705    3.2239    4.0840 H   0  0  0  0  0  0
    2.4891    3.9801    3.5099 H   0  0  0  0  0  0
    6.0995    1.8952    1.0166 H   0  0  0  0  0  0
    6.0391    0.8219    2.4184 H   0  0  0  0  0  0
    5.8532    2.5608    2.6296 H   0  0  0  0  0  0
   -6.6165    0.3577   -0.9499 H   0  0  0  0  0  0
   -9.1886    0.2843   -0.7053 H   0  0  0  0  0  0
   -9.9265   -0.4031    1.7404 H   0  0  0  0  0  0
  1  2  2  0  0  0
  1  6  1  0  0  0
  1  8  1  0  0  0
  2  3  1  0  0  0
  2 26  1  0  0  0
  3  4  2  0  0  0
  3 13  1  0  0  0
  4  5  1  0  0  0
  4 27  1  0  0  0
  5  6  2  0  0  0
  5  7  1  0  0  0
  6  9  1  0  0  0
  9 10  1  0  0  0
 10 11  1  0  0  0
 10 12  2  0  0  0
 11 25  1  0  0  0
 11 22  2  0  0  0
 13 14  2  0  0  0
 13 28  1  0  0  0
 14 15  1  0  0  0
 14 18  1  0  0  0
 15 16  2  0  0  0
 16 17  1  0  0  0
 16 20  1  0  0  0
 17 18  1  0  0  0
 17 21  1  0  0  0
 18 19  2  0  0  0
 20 29  1  0  0  0
 20 30  1  0  0  0
 20 31  1  0  0  0
 21 32  1  0  0  0
 21 33  1  0  0  0
 21 34  1  0  0  0
 22 23  1  0  0  0
 22 35  1  0  0  0
 23 24  2  0  0  0
 23 36  1  0  0  0
 24 25  1  0  0  0
 24 37  1  0  0  0
M  END
> <s_m_entry_id>
100

> <s_m_entry_name>
entry

> <i_lp_mmshare_version>
47013

> <i_f3d_flags>
0

> <s_epik_input>
Tz1DMU4oW0NIM10pQyhbQ0gzXSk9Ti9DMT1bQ0hdXGMoW2NIXWMyRilbY0hdYyhGKWMyT0MoPU8pYzNbY0hdW2NIXVtjSF1zMw==

> <s_epik_cmdline>
J2VwaWtfcHl0aG9uJywgJy1waCcsICc3LjQnLCAnLXRuJywgJzgnLCAnLW1hJywgJzIwMCcsICctaW1hZScsICc8aW5maWxlLm1hZT4nLCAnLW9tYWUnLCAnPG91dGZpbGUubWFlPic=

> <r_epik_Ionization_Penalty>
  0.0001

> <r_epik_Ionization_Penalty_Charging>
  0.0000

> <r_epik_Ionization_Penalty_Neutral>
  0.0001

> <r_epik_State_Penalty>
  0.4107

> <r_epik_Charging_Adjusted_Penalty>
0.410679838952604

> <i_epik_Tot_Q>
0

> <i_epik_Tot_abs_Q>
0

> <s_lp_Force_Field>
OPLS3e

> <r_lp_Energy>
23.972773

> <b_lp_Chiralities_Consistent>
1

> <s_lp_Variant>
M119-1

> <s_m_job_name>
ligprep_26

> <s_m_Source_Path>
/home/andre/Documents/projects/Esterase/data/FINAL_STUFF/Compounds/MAE_external

> <s_m_Source_File>
100.mae

> <i_m_Source_File_Index>
1

> <r_lp_tautomer_probability>
0.5

> <s_epik_Chemistry_Notes>
This compound has an imine and may undergo hydrolysis.

$$$$
