104
                    3D
 Schrodinger Suite 2021-1.
 88 90  0  0  1  0            999 V2000
   -5.4856    0.0900    4.0022 C   0  0  0  0  0  0
   -4.1084    0.0593    3.7479 C   0  0  0  0  0  0
   -3.6315   -0.7530    2.7085 C   0  0  0  0  0  0
   -4.5046   -1.4987    1.9109 C   0  0  0  0  0  0
   -5.8734   -1.4492    2.1802 C   0  0  0  0  0  0
   -6.3801   -0.6560    3.2227 C   0  0  0  0  0  0
   -4.0202   -2.3397    0.7954 C   0  0  0  0  0  0
   -2.9824   -2.1159   -0.0412 C   0  0  0  0  0  0
   -2.1326   -0.9135   -0.1378 C   0  0  0  0  0  0
   -2.6789    0.3711   -0.1165 C   0  0  0  0  0  0
   -1.8542    1.4904   -0.1715 C   0  0  0  0  0  0
   -0.4579    1.3527   -0.2541 C   0  0  0  0  0  0
    0.0986    0.0605   -0.2937 C   0  0  0  0  0  0
   -0.7484   -1.0586   -0.2418 C   0  0  0  0  0  0
    0.4075    2.4352   -0.2963 O   0  0  0  0  0  0
   -0.1156    3.7583   -0.2470 C   0  0  0  0  0  0
   -3.2958    0.8420    4.5488 O   0  0  0  0  0  0
   -5.9687    0.8846    5.0142 O   0  0  0  0  0  0
   -7.7238   -0.5576    3.5366 O   0  0  0  0  0  0
   -8.6755   -1.2924    2.7753 C   0  0  0  0  0  0
   -6.0415    0.2332    6.2751 C   0  0  0  0  0  0
   -1.8948    0.8789    4.2965 C   0  0  0  0  0  0
    4.7355   -3.0303    0.5591 C   0  0  0  0  0  0
    5.6931   -2.6438    1.4197 N   0  0  0  0  0  0
    4.9423   -3.2523   -0.6337 O   0  0  0  0  0  0
    7.0923   -2.3410    1.0680 C   0  0  1  0  0  0
    7.3842   -0.8320    1.3070 C   0  0  0  0  0  0
    8.0502   -3.2033    1.8961 C   0  0  0  0  0  0
    7.4602   -3.9591    2.8703 O   0  0  0  0  0  0
    9.2657   -3.1798    1.6885 O   0  0  0  0  0  0
    6.4878    0.1579    0.5212 C   0  0  0  0  0  0
    6.5811   -0.0388   -1.0076 C   0  0  0  0  0  0
    6.7718    1.6155    0.9435 C   0  0  0  0  0  0
    8.2249   -4.7877    3.7482 C   0  0  0  0  0  0
    7.2551   -5.7052    4.5213 C   0  0  0  0  0  0
    7.1667   -5.1283    5.9358 C   0  0  0  0  0  0
    8.5543   -4.5444    6.1787 C   0  0  0  0  0  0
    8.9462   -3.9419    4.8271 C   0  0  0  0  0  0
    1.5014   -0.0618   -0.3625 N   0  0  0  0  0  0
    2.1991   -1.3427   -0.3522 C   0  0  0  0  0  0
    2.5100   -1.8534    1.0697 C   0  0  0  0  0  0
    3.3191   -3.1681    1.1297 C   0  0  0  0  0  0
   -2.5726   -0.8113    2.5105 H   0  0  0  0  0  0
   -6.5398   -2.0314    1.5612 H   0  0  0  0  0  0
   -4.5498   -3.2736    0.6705 H   0  0  0  0  0  0
   -2.7573   -2.8891   -0.7619 H   0  0  0  0  0  0
   -3.7486    0.5085   -0.0471 H   0  0  0  0  0  0
   -2.3229    2.4622   -0.1421 H   0  0  0  0  0  0
   -0.3429   -2.0588   -0.2521 H   0  0  0  0  0  0
    0.7080    4.4713   -0.2808 H   0  0  0  0  0  0
   -0.6677    3.9365    0.6770 H   0  0  0  0  0  0
   -0.7648    3.9639   -1.0993 H   0  0  0  0  0  0
   -9.6746   -1.0948    3.1633 H   0  0  0  0  0  0
   -8.5010   -2.3670    2.8457 H   0  0  0  0  0  0
   -8.6643   -0.9949    1.7257 H   0  0  0  0  0  0
   -6.4254    0.9290    7.0207 H   0  0  0  0  0  0
   -5.0591   -0.1045    6.6101 H   0  0  0  0  0  0
   -6.7138   -0.6261    6.2438 H   0  0  0  0  0  0
   -1.4195    1.5594    5.0027 H   0  0  0  0  0  0
   -1.6778    1.2424    3.2904 H   0  0  0  0  0  0
   -1.4396   -0.1038    4.4283 H   0  0  0  0  0  0
    5.4437   -2.4759    2.3838 H   0  0  0  0  0  0
    7.2894   -2.5784    0.0207 H   0  0  0  0  0  0
    7.2903   -0.6140    2.3732 H   0  0  0  0  0  0
    8.4225   -0.6160    1.0471 H   0  0  0  0  0  0
    5.4534   -0.0381    0.8056 H   0  0  0  0  0  0
    7.4331   -0.6572   -1.2906 H   0  0  0  0  0  0
    6.6784    0.9016   -1.5496 H   0  0  0  0  0  0
    5.6834   -0.5288   -1.3862 H   0  0  0  0  0  0
    7.1998    2.2130    0.1387 H   0  0  0  0  0  0
    7.4713    1.6702    1.7782 H   0  0  0  0  0  0
    5.8541    2.1112    1.2619 H   0  0  0  0  0  0
    8.9308   -5.3936    3.1770 H   0  0  0  0  0  0
    6.2571   -5.7339    4.0801 H   0  0  0  0  0  0
    7.6375   -6.7268    4.5393 H   0  0  0  0  0  0
    6.4142   -4.3387    5.9767 H   0  0  0  0  0  0
    6.8977   -5.8827    6.6761 H   0  0  0  0  0  0
    8.5596   -3.8062    6.9817 H   0  0  0  0  0  0
    9.2518   -5.3371    6.4546 H   0  0  0  0  0  0
   10.0276   -3.9496    4.6872 H   0  0  0  0  0  0
    8.6231   -2.8996    4.7933 H   0  0  0  0  0  0
    2.0428    0.7584   -0.1286 H   0  0  0  0  0  0
    1.6590   -2.1038   -0.9148 H   0  0  0  0  0  0
    3.1197   -1.2184   -0.9228 H   0  0  0  0  0  0
    3.0276   -1.0762    1.6358 H   0  0  0  0  0  0
    1.5673   -2.0039    1.5977 H   0  0  0  0  0  0
    2.7889   -3.9632    0.6032 H   0  0  0  0  0  0
    3.3873   -3.4984    2.1677 H   0  0  0  0  0  0
  1  2  2  0  0  0
  1  6  1  0  0  0
  1 18  1  0  0  0
  2  3  1  0  0  0
  2 17  1  0  0  0
  3  4  2  0  0  0
  3 43  1  0  0  0
  4  5  1  0  0  0
  4  7  1  0  0  0
  5  6  2  0  0  0
  5 44  1  0  0  0
  6 19  1  0  0  0
  7  8  2  0  0  0
  7 45  1  0  0  0
  8  9  1  0  0  0
  8 46  1  0  0  0
  9 14  2  0  0  0
  9 10  1  0  0  0
 10 11  2  0  0  0
 10 47  1  0  0  0
 11 12  1  0  0  0
 11 48  1  0  0  0
 12 13  2  0  0  0
 12 15  1  0  0  0
 13 14  1  0  0  0
 13 39  1  0  0  0
 14 49  1  0  0  0
 15 16  1  0  0  0
 16 50  1  0  0  0
 16 51  1  0  0  0
 16 52  1  0  0  0
 17 22  1  0  0  0
 18 21  1  0  0  0
 19 20  1  0  0  0
 20 53  1  0  0  0
 20 54  1  0  0  0
 20 55  1  0  0  0
 21 56  1  0  0  0
 21 57  1  0  0  0
 21 58  1  0  0  0
 22 59  1  0  0  0
 22 60  1  0  0  0
 22 61  1  0  0  0
 23 24  1  0  0  0
 23 25  2  0  0  0
 23 42  1  0  0  0
 24 26  1  0  0  0
 24 62  1  0  0  0
 26 27  1  0  0  0
 26 28  1  0  0  0
 26 63  1  0  0  0
 27 31  1  0  0  0
 27 64  1  0  0  0
 27 65  1  0  0  0
 28 29  1  0  0  0
 28 30  2  0  0  0
 29 34  1  0  0  0
 31 32  1  0  0  0
 31 33  1  0  0  0
 31 66  1  0  0  0
 32 67  1  0  0  0
 32 68  1  0  0  0
 32 69  1  0  0  0
 33 70  1  0  0  0
 33 71  1  0  0  0
 33 72  1  0  0  0
 34 38  1  0  0  0
 34 35  1  0  0  0
 34 73  1  0  0  0
 35 36  1  0  0  0
 35 74  1  0  0  0
 35 75  1  0  0  0
 36 37  1  0  0  0
 36 76  1  0  0  0
 36 77  1  0  0  0
 37 38  1  0  0  0
 37 78  1  0  0  0
 37 79  1  0  0  0
 38 80  1  0  0  0
 38 81  1  0  0  0
 39 40  1  0  0  0
 39 82  1  0  0  0
 40 41  1  0  0  0
 40 83  1  0  0  0
 40 84  1  0  0  0
 41 42  1  0  0  0
 41 85  1  0  0  0
 41 86  1  0  0  0
 42 87  1  0  0  0
 42 88  1  0  0  0
M  END
> <s_m_entry_id>
104

> <s_m_entry_name>
entry

> <i_lp_mmshare_version>
47013

> <i_f3d_flags>
0

> <s_epik_input>
W0NIM11PYzFjKE9bQ0gzXSlbY0hdYyhbY0hdYzFPW0NIM10pL1tDSF09W0NIXVxjMltjSF1bY0hdYyhPW0NIM10pYyhbY0hdMilbTkhdW0NIMl1bQ0gyXVtDSDJdQyg9TylbTkhdW0NAQEhdKFtDSDJdW0NIXShbQ0gzXSlbQ0gzXSlDKD1PKU9bQ0hdM1tDSDJdW0NIMl1bQ0gyXVtDSDJdMw==

> <s_epik_cmdline>
J2VwaWtfcHl0aG9uJywgJy1waCcsICc3LjQnLCAnLXRuJywgJzgnLCAnLW1hJywgJzIwMCcsICctaW1hZScsICc8aW5maWxlLm1hZT4nLCAnLW9tYWUnLCAnPG91dGZpbGUubWFlPic=

> <r_epik_Ionization_Penalty>
  0.0011

> <r_epik_Ionization_Penalty_Charging>
  0.0000

> <r_epik_Ionization_Penalty_Neutral>
  0.0011

> <r_epik_State_Penalty>
  0.0007

> <r_epik_Charging_Adjusted_Penalty>
0.000720070530576902

> <i_epik_Tot_Q>
0

> <i_epik_Tot_abs_Q>
0

> <s_lp_Force_Field>
OPLS3e

> <r_lp_Energy>
66.351444

> <b_lp_Chiralities_Consistent>
1

> <s_lp_Variant>
M128-1

> <s_m_job_name>
ligprep_3

> <s_m_Source_Path>
/home/andre/Documents/projects/Esterase/data/FINAL_STUFF/Compounds/MAE_external

> <s_m_Source_File>
104.mae

> <i_m_Source_File_Index>
1

> <s_epik_Chemistry_Notes>
This compound has an ester and may undergo hydrolysis at high or low pH.

$$$$
