109
                    3D
 Schrodinger Suite 2021-1.
 88 91  0  0  1  0            999 V2000
    1.0892    3.3246   -6.8112 C   0  0  0  0  0  0
    1.4598    3.7722   -8.0737 C   0  0  0  0  0  0
    0.5050    4.3104   -8.9282 C   0  0  0  0  0  0
   -0.8205    4.4010   -8.5202 C   0  0  0  0  0  0
   -1.1912    3.9534   -7.2577 C   0  0  0  0  0  0
   -0.2363    3.4152   -6.4032 C   0  0  0  0  0  0
   -0.6257    2.9451   -5.0769 N   0  0  0  0  0  0
   -1.8643    2.6244   -4.7019 C   0  0  0  0  0  0
   -2.8291    2.6948   -5.4576 O   0  0  0  0  0  0
   -1.9159    2.1783   -3.2707 C   0  0  0  0  0  0
   -0.8396    2.0915   -2.4006 C   0  0  0  0  0  0
    0.6181    2.3913   -2.5881 C   0  0  0  0  0  0
    0.7873    3.8325   -2.9683 C   0  0  0  0  0  0
    1.1722    1.5190   -3.6754 C   0  0  0  0  0  0
   -3.0587    1.7743   -2.5709 C   0  0  0  0  0  0
   -4.4548    1.7085   -3.1156 C   0  0  0  0  0  0
   -4.8843    2.6512   -4.0421 C   0  0  0  0  0  0
   -6.1778    2.5903   -4.5468 C   0  0  0  0  0  0
   -7.0418    1.5866   -4.1250 C   0  0  0  0  0  0
   -6.6122    0.6439   -3.1985 C   0  0  0  0  0  0
   -5.3187    0.7049   -2.6938 C   0  0  0  0  0  0
   -2.6662    1.4457   -1.2821 C   0  0  0  0  0  0
   -3.4465    0.9543   -0.0991 C   0  0  0  0  0  0
   -2.8671    0.0465    0.7848 C   0  0  0  0  0  0
   -3.5829   -0.4156    1.8857 C   0  0  0  0  0  0
   -4.8802    0.0364    2.0952 C   0  0  0  0  0  0
   -5.5834   -0.4064    3.1612 F   0  0  0  0  0  0
   -5.4579    0.9428    1.2120 C   0  0  0  0  0  0
   -4.7457    1.4075    0.1099 C   0  0  0  0  0  0
   -1.3111    1.6436   -1.1921 N   0  0  0  0  0  0
   -0.5000    1.4142    0.0000 C   0  0  0  0  0  0
    0.0000    0.0000    0.0000 C   0  0  0  0  0  0
    1.5000    0.0000    0.0000 C   0  0  1  0  0  0
    1.9600    0.6505    1.1268 O   0  0  0  0  0  0
    2.0000   -1.4142    0.0000 C   0  0  0  0  0  0
    3.5000   -1.4142    0.0000 C   0  0  1  0  0  0
    3.9600   -0.7637    1.1268 O   0  0  0  0  0  0
    4.0000   -2.8284    0.0000 C   0  0  0  0  0  0
    5.5000   -2.8284    0.0000 C   0  0  0  0  0  0
    6.2450   -1.8549    0.0000 O   0  0  0  0  0  0
    5.9492   -4.1092    0.0000 O   0  0  0  0  0  0
    7.3291   -4.0891    0.0000 C   0  0  0  0  0  0
    7.8220   -3.5982   -1.3289 C   0  0  0  0  0  0
    9.3218   -3.5763   -1.3289 C   0  0  0  0  0  0
    9.8085   -2.6601   -0.2456 C   0  0  0  0  0  0
    1.8326    2.9056   -6.1459 H   0  0  0  0  0  0
    2.4918    3.7016   -8.3913 H   0  0  0  0  0  0
    0.7935    4.6588   -9.9111 H   0  0  0  0  0  0
   -1.5640    4.8200   -9.1855 H   0  0  0  0  0  0
   -2.2231    4.0240   -6.9400 H   0  0  0  0  0  0
    0.1947    2.9020   -4.4894 H   0  0  0  0  0  0
    1.1518    2.1958   -1.6581 H   0  0  0  0  0  0
    0.3846    4.4663   -2.1782 H   0  0  0  0  0  0
    1.8465    4.0503   -3.1045 H   0  0  0  0  0  0
    0.2535    4.0279   -3.8984 H   0  0  0  0  0  0
    1.0492    0.4718   -3.3991 H   0  0  0  0  0  0
    0.6385    1.7145   -4.6055 H   0  0  0  0  0  0
    2.2314    1.7369   -3.8116 H   0  0  0  0  0  0
   -4.2117    3.4326   -4.3705 H   0  0  0  0  0  0
   -6.5123    3.3242   -5.2681 H   0  0  0  0  0  0
   -8.0489    1.5392   -4.5179 H   0  0  0  0  0  0
   -7.2849   -0.1375   -2.8701 H   0  0  0  0  0  0
   -4.9843   -0.0291   -1.9724 H   0  0  0  0  0  0
   -1.8568   -0.3011    0.6156 H   0  0  0  0  0  0
   -3.1391   -1.1196    2.5748 H   0  0  0  0  0  0
   -6.4674    1.2850    1.3882 H   0  0  0  0  0  0
   -5.1973    2.1123   -0.5753 H   0  0  0  0  0  0
    0.3478    2.0993   -0.0000 H   0  0  0  0  0  0
   -1.1056    1.5855    0.8900 H   0  0  0  0  0  0
   -0.3633   -0.5138    0.8900 H   0  0  0  0  0  0
   -0.3633   -0.5138   -0.8900 H   0  0  0  0  0  0
    1.8633    0.5138   -0.8900 H   0  0  0  0  0  0
    1.6736    0.2456    1.9951 H   0  0  0  0  0  0
    1.6367   -1.9280    0.8900 H   0  0  0  0  0  0
    1.6367   -1.9280   -0.8900 H   0  0  0  0  0  0
    3.8633   -0.9004   -0.8900 H   0  0  0  0  0  0
    4.5281    0.0398    0.9486 H   0  0  0  0  0  0
    3.6367   -3.3423    0.8900 H   0  0  0  0  0  0
    3.6367   -3.3423   -0.8900 H   0  0  0  0  0  0
    7.6827   -3.4233    0.7872 H   0  0  0  0  0  0
    7.7071   -5.0958    0.1785 H   0  0  0  0  0  0
    7.4683   -4.2640   -2.1162 H   0  0  0  0  0  0
    7.4439   -2.5915   -1.5074 H   0  0  0  0  0  0
    9.6999   -4.5830   -1.1505 H   0  0  0  0  0  0
    9.6800   -3.2196   -2.2946 H   0  0  0  0  0  0
   10.8984   -2.6442   -0.2456 H   0  0  0  0  0  0
    9.4305   -1.6535   -0.4240 H   0  0  0  0  0  0
    9.4503   -3.0168    0.7201 H   0  0  0  0  0  0
  1  6  2  0  0  0
  1  2  1  0  0  0
  1 46  1  0  0  0
  2  3  2  0  0  0
  2 47  1  0  0  0
  3  4  1  0  0  0
  3 48  1  0  0  0
  4  5  2  0  0  0
  4 49  1  0  0  0
  5  6  1  0  0  0
  5 50  1  0  0  0
  6  7  1  0  0  0
  7  8  1  0  0  0
  7 51  1  0  0  0
  8  9  2  0  0  0
  8 10  1  0  0  0
 10 11  2  0  0  0
 10 15  1  0  0  0
 11 30  1  0  0  0
 11 12  1  0  0  0
 12 13  1  0  0  0
 12 14  1  0  0  0
 12 52  1  0  0  0
 13 53  1  0  0  0
 13 54  1  0  0  0
 13 55  1  0  0  0
 14 56  1  0  0  0
 14 57  1  0  0  0
 14 58  1  0  0  0
 15 16  1  0  0  0
 15 22  2  0  0  0
 16 21  1  0  0  0
 16 17  2  0  0  0
 17 18  1  0  0  0
 17 59  1  0  0  0
 18 19  2  0  0  0
 18 60  1  0  0  0
 19 20  1  0  0  0
 19 61  1  0  0  0
 20 21  2  0  0  0
 20 62  1  0  0  0
 21 63  1  0  0  0
 22 23  1  0  0  0
 22 30  1  0  0  0
 23 29  1  0  0  0
 23 24  2  0  0  0
 24 25  1  0  0  0
 24 64  1  0  0  0
 25 26  2  0  0  0
 25 65  1  0  0  0
 26 27  1  0  0  0
 26 28  1  0  0  0
 28 29  2  0  0  0
 28 66  1  0  0  0
 29 67  1  0  0  0
 30 31  1  0  0  0
 31 32  1  0  0  0
 31 68  1  0  0  0
 31 69  1  0  0  0
 32 33  1  0  0  0
 32 70  1  0  0  0
 32 71  1  0  0  0
 33 34  1  0  0  0
 33 35  1  0  0  0
 33 72  1  0  0  0
 34 73  1  0  0  0
 35 36  1  0  0  0
 35 74  1  0  0  0
 35 75  1  0  0  0
 36 37  1  0  0  0
 36 38  1  0  0  0
 36 76  1  0  0  0
 37 77  1  0  0  0
 38 39  1  0  0  0
 38 78  1  0  0  0
 38 79  1  0  0  0
 39 40  2  0  0  0
 39 41  1  0  0  0
 41 42  1  0  0  0
 42 43  1  0  0  0
 42 80  1  0  0  0
 42 81  1  0  0  0
 43 44  1  0  0  0
 43 82  1  0  0  0
 43 83  1  0  0  0
 44 45  1  0  0  0
 44 84  1  0  0  0
 44 85  1  0  0  0
 45 86  1  0  0  0
 45 87  1  0  0  0
 45 88  1  0  0  0
M  END
> <s_m_entry_id>
109

> <s_m_entry_name>
263_1.1

> <i_lp_mmshare_version>
47013

> <s_epik_input>
W2NIXTFbY0hdW2NIXVtjSF1bY0hdYzFbTkhdQyg9TyljKGMyW0NIXShbQ0gzXSlbQ0gzXSljKC1jM1tjSF1bY0hdW2NIXVtjSF1bY0hdMyljKC1jNFtjSF1bY0hdYyhGKVtjSF1bY0hdNCluMltDSDJdW0NIMl1bQ0BASF0oW09IXSlbQ0gyXVtDQEBIXShbT0hdKVtDSDJdQyg9TylPW0NIMl1bQ0gyXVtDSDJdW0NIM10=

> <s_epik_cmdline>
J2VwaWtfcHl0aG9uJywgJy1waCcsICc3LjQnLCAnLXRuJywgJzgnLCAnLW1hJywgJzIwMCcsICctaW1hZScsICc8aW5maWxlLm1hZT4nLCAnLW9tYWUnLCAnPG91dGZpbGUubWFlPic=

> <r_epik_Ionization_Penalty>
  0.0000

> <r_epik_Ionization_Penalty_Charging>
  0.0000

> <r_epik_Ionization_Penalty_Neutral>
  0.0000

> <r_epik_State_Penalty>
  0.0000

> <r_epik_Charging_Adjusted_Penalty>
0

> <i_epik_Tot_Q>
0

> <i_epik_Tot_abs_Q>
0

> <s_lp_Force_Field>
OPLS3e

> <r_lp_Energy>
46.536926

> <b_lp_Chiralities_Consistent>
1

> <s_lp_Variant>
127029804-1

> <s_m_job_name>
ligprep_15

> <s_m_Source_Path>
/home/andre/Documents/projects/Esterase/data/FINAL_STUFF/Compounds/MAE_external

> <s_m_Source_File>
109.mae

> <i_m_Source_File_Index>
1

> <r_lp_tautomer_probability>
1

> <s_epik_Chemistry_Notes>
This compound has an ester and may undergo hydrolysis at high or low pH.

> <i_f3d_flags>
0

$$$$
