114
                    3D
 Schrodinger Suite 2021-1.
 89 93  0  0  1  0            999 V2000
   -3.7209    5.8649   -3.7541 C   0  0  0  0  0  0
   -4.3598    6.8754   -4.4677 C   0  0  0  0  0  0
   -3.7488    8.1193   -4.5990 C   0  0  0  0  0  0
   -2.5047    8.3615   -4.0229 C   0  0  0  0  0  0
   -1.8629    7.3531   -3.3085 C   0  0  0  0  0  0
   -2.4719    6.0943   -3.1699 C   0  0  0  0  0  0
   -1.9172    5.0061   -2.4705 N   0  0  0  0  0  0
   -0.7535    4.9205   -1.7917 C   0  0  0  0  0  0
    0.0862    5.8072   -1.6429 O   0  0  0  0  0  0
   -0.5569    3.6275   -1.2024 C   0  0  0  0  0  0
   -0.1284    2.4690   -1.8688 C   0  0  0  0  0  0
    0.2795    2.2238   -3.3321 C   0  0  0  0  0  0
    1.1839    3.3302   -3.9099 C   0  0  0  0  0  0
   -0.9584    1.9896   -4.2160 C   0  0  0  0  0  0
   -0.8677    3.2905    0.1299 C   0  0  0  0  0  0
   -1.3933    4.1886    1.2061 C   0  0  0  0  0  0
   -2.5743    4.9122    1.0124 C   0  0  0  0  0  0
   -3.0570    5.7430    2.0198 C   0  0  0  0  0  0
   -2.3594    5.8479    3.2211 C   0  0  0  0  0  0
   -1.1843    5.1282    3.4244 C   0  0  0  0  0  0
   -0.7016    4.2978    2.4167 C   0  0  0  0  0  0
   -0.5697    1.9392    0.2823 C   0  0  0  0  0  0
   -0.7152    1.1083    1.5114 C   0  0  0  0  0  0
    0.4142    0.6765    2.2103 C   0  0  0  0  0  0
    0.2648   -0.0793    3.3702 C   0  0  0  0  0  0
   -1.0120   -0.3975    3.8286 C   0  0  0  0  0  0
   -1.1561   -1.1352    4.9525 F   0  0  0  0  0  0
   -2.1418    0.0405    3.1402 C   0  0  0  0  0  0
   -1.9935    0.7986    1.9819 C   0  0  0  0  0  0
   -0.1499    1.4385   -0.9378 N   0  0  0  0  0  0
    0.2402    0.0444   -1.1919 C   0  0  0  0  0  0
    1.7753   -0.1350   -1.1513 C   0  0  0  0  0  0
    2.2653   -1.4620   -1.7757 C   0  0  1  0  0  0
    3.6794   -1.4822   -1.7481 O   0  0  0  0  0  0
    1.7063   -2.7736   -1.1607 C   0  0  0  0  0  0
    2.1370   -3.1206    0.2864 C   0  0  1  0  0  0
    1.5329   -2.2223    1.1963 O   0  0  0  0  0  0
    1.7552   -4.5733    0.6646 C   0  0  0  0  0  0
    2.2974   -5.0848    2.0088 C   0  0  0  0  0  0
    3.0767   -4.4221    2.7004 O   0  0  0  0  0  0
    1.8112   -6.3211    2.3016 O   0  0  0  0  0  0
    2.2056   -6.9460    3.4629 C   0  0  0  0  0  0
    3.3971   -7.6762    3.4994 C   0  0  0  0  0  0
    3.7796   -8.3232    4.6714 C   0  0  0  0  0  0
    2.9692   -8.2456    5.8060 C   0  0  0  0  0  0
    1.7697   -7.5319    5.7644 C   0  0  0  0  0  0
    1.3864   -6.8850    4.5925 C   0  0  0  0  0  0
    3.3793   -8.9607    7.0806 C   0  0  0  0  0  0
   -4.2049    4.9032   -3.6587 H   0  0  0  0  0  0
   -5.3251    6.6957   -4.9174 H   0  0  0  0  0  0
   -4.2439    8.9037   -5.1525 H   0  0  0  0  0  0
   -2.0379    9.3296   -4.1296 H   0  0  0  0  0  0
   -0.9011    7.5807   -2.8791 H   0  0  0  0  0  0
   -2.4839    4.1709   -2.4835 H   0  0  0  0  0  0
    0.8802    1.3193   -3.4129 H   0  0  0  0  0  0
    2.0270    3.5387   -3.2500 H   0  0  0  0  0  0
    0.6456    4.2631   -4.0740 H   0  0  0  0  0  0
    1.5928    3.0321   -4.8759 H   0  0  0  0  0  0
   -1.5496    1.1472   -3.8550 H   0  0  0  0  0  0
   -0.6715    1.7704   -5.2451 H   0  0  0  0  0  0
   -1.6088    2.8642   -4.2407 H   0  0  0  0  0  0
   -3.1234    4.8290    0.0862 H   0  0  0  0  0  0
   -3.9689    6.3023    1.8704 H   0  0  0  0  0  0
   -2.7334    6.4930    4.0025 H   0  0  0  0  0  0
   -0.6487    5.2145    4.3584 H   0  0  0  0  0  0
    0.2120    3.7436    2.5771 H   0  0  0  0  0  0
    1.4046    0.9301    1.8620 H   0  0  0  0  0  0
    1.1361   -0.4184    3.9108 H   0  0  0  0  0  0
   -3.1287   -0.2040    3.5048 H   0  0  0  0  0  0
   -2.8700    1.1436    1.4523 H   0  0  0  0  0  0
   -0.2450   -0.6118   -0.4690 H   0  0  0  0  0  0
   -0.1691   -0.2510   -2.1585 H   0  0  0  0  0  0
    2.2506    0.6866   -1.6898 H   0  0  0  0  0  0
    2.1320   -0.0423   -0.1260 H   0  0  0  0  0  0
    1.9866   -1.4494   -2.8305 H   0  0  0  0  0  0
    3.9660   -1.4737   -0.8318 H   0  0  0  0  0  0
    0.6179   -2.7795   -1.2343 H   0  0  0  0  0  0
    2.0291   -3.5896   -1.8101 H   0  0  0  0  0  0
    3.2192   -3.0092    0.3706 H   0  0  0  0  0  0
    0.5807   -2.3363    1.1544 H   0  0  0  0  0  0
    0.6696   -4.6773    0.6667 H   0  0  0  0  0  0
    2.1235   -5.2489   -0.1079 H   0  0  0  0  0  0
    4.0252   -7.7373    2.6226 H   0  0  0  0  0  0
    4.7040   -8.8820    4.6950 H   0  0  0  0  0  0
    1.1346   -7.4771    6.6369 H   0  0  0  0  0  0
    0.4575   -6.3342    4.5620 H   0  0  0  0  0  0
    2.5041   -9.3287    7.6176 H   0  0  0  0  0  0
    3.9314   -8.2875    7.7368 H   0  0  0  0  0  0
    4.0007   -9.8302    6.8628 H   0  0  0  0  0  0
  1  2  2  0  0  0
  1  6  1  0  0  0
  1 49  1  0  0  0
  2  3  1  0  0  0
  2 50  1  0  0  0
  3  4  2  0  0  0
  3 51  1  0  0  0
  4  5  1  0  0  0
  4 52  1  0  0  0
  5  6  2  0  0  0
  5 53  1  0  0  0
  6  7  1  0  0  0
  7  8  1  0  0  0
  7 54  1  0  0  0
  8  9  2  0  0  0
  8 10  1  0  0  0
 10 11  2  0  0  0
 10 15  1  0  0  0
 11 12  1  0  0  0
 11 30  1  0  0  0
 12 13  1  0  0  0
 12 14  1  0  0  0
 12 55  1  0  0  0
 13 56  1  0  0  0
 13 57  1  0  0  0
 13 58  1  0  0  0
 14 59  1  0  0  0
 14 60  1  0  0  0
 14 61  1  0  0  0
 15 16  1  0  0  0
 15 22  2  0  0  0
 16 17  2  0  0  0
 16 21  1  0  0  0
 17 18  1  0  0  0
 17 62  1  0  0  0
 18 19  2  0  0  0
 18 63  1  0  0  0
 19 20  1  0  0  0
 19 64  1  0  0  0
 20 21  2  0  0  0
 20 65  1  0  0  0
 21 66  1  0  0  0
 22 23  1  0  0  0
 22 30  1  0  0  0
 23 24  2  0  0  0
 23 29  1  0  0  0
 24 25  1  0  0  0
 24 67  1  0  0  0
 25 26  2  0  0  0
 25 68  1  0  0  0
 26 27  1  0  0  0
 26 28  1  0  0  0
 28 29  2  0  0  0
 28 69  1  0  0  0
 29 70  1  0  0  0
 30 31  1  0  0  0
 31 32  1  0  0  0
 31 71  1  0  0  0
 31 72  1  0  0  0
 32 33  1  0  0  0
 32 73  1  0  0  0
 32 74  1  0  0  0
 33 34  1  0  0  0
 33 35  1  0  0  0
 33 75  1  0  0  0
 34 76  1  0  0  0
 35 36  1  0  0  0
 35 77  1  0  0  0
 35 78  1  0  0  0
 36 37  1  0  0  0
 36 38  1  0  0  0
 36 79  1  0  0  0
 37 80  1  0  0  0
 38 39  1  0  0  0
 38 81  1  0  0  0
 38 82  1  0  0  0
 39 40  2  0  0  0
 39 41  1  0  0  0
 41 42  1  0  0  0
 42 47  2  0  0  0
 42 43  1  0  0  0
 43 44  2  0  0  0
 43 83  1  0  0  0
 44 45  1  0  0  0
 44 84  1  0  0  0
 45 46  2  0  0  0
 45 48  1  0  0  0
 46 47  1  0  0  0
 46 85  1  0  0  0
 47 86  1  0  0  0
 48 87  1  0  0  0
 48 88  1  0  0  0
 48 89  1  0  0  0
M  END
> <s_m_entry_id>
114

> <s_m_entry_name>
entry

> <i_lp_mmshare_version>
47013

> <i_f3d_flags>
0

> <s_epik_input>
W2NIXTFbY0hdW2NIXVtjSF1bY0hdYzFbTkhdQyg9TyljMmMoW0NIXShbQ0gzXSlbQ0gzXSluKGMoLWMzW2NIXVtjSF1jKEYpW2NIXVtjSF0zKWMyLWM0W2NIXVtjSF1bY0hdW2NIXVtjSF00KVtDSDJdW0NIMl1bQ0BASF0oW09IXSlbQ0gyXVtDQEBIXShbT0hdKVtDSDJdQyg9TylPYzVbY0hdW2NIXWMoW0NIM10pW2NIXVtjSF01

> <s_epik_cmdline>
J2VwaWtfcHl0aG9uJywgJy1waCcsICc3LjQnLCAnLXRuJywgJzgnLCAnLW1hJywgJzIwMCcsICctaW1hZScsICc8aW5maWxlLm1hZT4nLCAnLW9tYWUnLCAnPG91dGZpbGUubWFlPic=

> <r_epik_Ionization_Penalty>
  0.0000

> <r_epik_Ionization_Penalty_Charging>
  0.0000

> <r_epik_Ionization_Penalty_Neutral>
  0.0000

> <r_epik_State_Penalty>
  0.0000

> <r_epik_Charging_Adjusted_Penalty>
0

> <i_epik_Tot_Q>
0

> <i_epik_Tot_abs_Q>
0

> <s_lp_Force_Field>
OPLS3e

> <r_lp_Energy>
53.808685

> <b_lp_Chiralities_Consistent>
1

> <s_lp_Variant>
M140-1

> <s_m_job_name>
ligprep_20

> <s_m_Source_Path>
/home/andre/Documents/projects/Esterase/data/FINAL_STUFF/Compounds/MAE_external

> <s_m_Source_File>
114.mae

> <i_m_Source_File_Index>
1

> <r_lp_tautomer_probability>
1

$$$$
