116
                    3D
 Schrodinger Suite 2021-1.
 86 90  0  0  1  0            999 V2000
   -3.8315    4.7016   -3.9662 C   0  0  0  0  0  0
   -4.3681    5.4933   -4.9779 C   0  0  0  0  0  0
   -3.5182    6.1856   -5.8361 C   0  0  0  0  0  0
   -2.1364    6.0951   -5.6900 C   0  0  0  0  0  0
   -1.5961    5.3037   -4.6793 C   0  0  0  0  0  0
   -2.4462    4.5977   -3.8113 C   0  0  0  0  0  0
   -2.0116    3.7748   -2.7561 N   0  0  0  0  0  0
   -0.7596    3.4053   -2.4118 C   0  0  0  0  0  0
    0.2889    3.7133   -2.9771 O   0  0  0  0  0  0
   -0.7418    2.5618   -1.2524 C   0  0  0  0  0  0
   -1.0303    1.1877   -1.2143 C   0  0  0  0  0  0
   -1.3842    0.1887   -2.3293 C   0  0  0  0  0  0
   -0.6946    0.4730   -3.6799 C   0  0  0  0  0  0
   -2.9102    0.0915   -2.5056 C   0  0  0  0  0  0
   -0.5556    3.0205    0.0641 C   0  0  0  0  0  0
   -0.2887    4.4234    0.5044 C   0  0  0  0  0  0
   -1.2588    5.4098    0.3028 C   0  0  0  0  0  0
   -1.0155    6.7193    0.7077 C   0  0  0  0  0  0
    0.1973    7.0394    1.3141 C   0  0  0  0  0  0
    1.1695    6.0622    1.5174 C   0  0  0  0  0  0
    0.9264    4.7528    1.1110 C   0  0  0  0  0  0
   -0.6863    1.9156    0.8977 C   0  0  0  0  0  0
   -0.5858    1.8749    2.3851 C   0  0  0  0  0  0
    0.6664    1.9107    3.0031 C   0  0  0  0  0  0
    0.7560    1.8836    4.3920 C   0  0  0  0  0  0
   -0.4064    1.8246    5.1585 C   0  0  0  0  0  0
   -0.3189    1.7980    6.5075 F   0  0  0  0  0  0
   -1.6581    1.7936    4.5466 C   0  0  0  0  0  0
   -1.7485    1.8212    3.1575 C   0  0  0  0  0  0
   -1.0003    0.8094    0.1243 N   0  0  0  0  0  0
   -1.2021   -0.5478    0.6662 C   0  0  0  0  0  0
    0.1295   -1.2344    1.0589 C   0  0  0  0  0  0
    1.0505   -1.6405   -0.1142 C   0  0  1  0  0  0
    2.3513   -1.8572    0.3993 O   0  0  0  0  0  0
    0.5756   -2.9255   -0.8395 C   0  0  0  0  0  0
    1.4180   -3.3444   -2.0686 C   0  0  1  0  0  0
    0.9585   -4.6130   -2.4996 O   0  0  0  0  0  0
    1.3242   -2.3314   -3.2360 C   0  0  0  0  0  0
    2.2347   -2.5963   -4.4429 C   0  0  0  0  0  0
    3.1315   -3.4440   -4.4182 O   0  0  0  0  0  0
    1.9141   -1.7865   -5.4893 O   0  0  0  0  0  0
    2.6210   -1.8721   -6.6685 C   0  0  0  0  0  0
    2.4721   -2.9728   -7.5206 C   0  0  0  0  0  0
    3.1808   -3.0261   -8.7178 C   0  0  0  0  0  0
    4.0271   -1.9750   -9.0673 C   0  0  0  0  0  0
    4.1663   -0.8687   -8.2302 C   0  0  0  0  0  0
    3.4590   -0.8157   -7.0320 C   0  0  0  0  0  0
    4.9051   -2.0412  -10.5517 Cl  0  0  0  0  0  0
   -4.5008    4.1688   -3.3054 H   0  0  0  0  0  0
   -5.4389    5.5702   -5.0959 H   0  0  0  0  0  0
   -3.9341    6.8005   -6.6207 H   0  0  0  0  0  0
   -1.4844    6.6391   -6.3576 H   0  0  0  0  0  0
   -0.5223    5.2660   -4.5938 H   0  0  0  0  0  0
   -2.7557    3.4082   -2.1812 H   0  0  0  0  0  0
   -1.0325   -0.8025   -2.0556 H   0  0  0  0  0  0
    0.3774    0.6305   -3.5571 H   0  0  0  0  0  0
   -1.1091    1.3470   -4.1813 H   0  0  0  0  0  0
   -0.8249   -0.3636   -4.3670 H   0  0  0  0  0  0
   -3.4024   -0.2160   -1.5824 H   0  0  0  0  0  0
   -3.1739   -0.6367   -3.2736 H   0  0  0  0  0  0
   -3.3374    1.0500   -2.8033 H   0  0  0  0  0  0
   -2.2008    5.1635   -0.1656 H   0  0  0  0  0  0
   -1.7634    7.4829    0.5523 H   0  0  0  0  0  0
    0.3867    8.0555    1.6277 H   0  0  0  0  0  0
    2.1084    6.3194    1.9853 H   0  0  0  0  0  0
    1.6861    4.0004    1.2608 H   0  0  0  0  0  0
    1.5686    1.9508    2.4101 H   0  0  0  0  0  0
    1.7228    1.9075    4.8729 H   0  0  0  0  0  0
   -2.5549    1.7502    5.1471 H   0  0  0  0  0  0
   -2.7194    1.8017    2.6838 H   0  0  0  0  0  0
   -1.8426   -0.4674    1.5445 H   0  0  0  0  0  0
   -1.7768   -1.1510   -0.0336 H   0  0  0  0  0  0
    0.6717   -0.5646    1.7266 H   0  0  0  0  0  0
   -0.0864   -2.1134    1.6682 H   0  0  0  0  0  0
    1.1227   -0.8061   -0.8108 H   0  0  0  0  0  0
    2.9288   -2.1093   -0.3250 H   0  0  0  0  0  0
    0.5776   -3.7433   -0.1154 H   0  0  0  0  0  0
   -0.4657   -2.8165   -1.1435 H   0  0  0  0  0  0
    2.4586   -3.4664   -1.7634 H   0  0  0  0  0  0
    0.0404   -4.5320   -2.7680 H   0  0  0  0  0  0
    0.2929   -2.2817   -3.5858 H   0  0  0  0  0  0
    1.5745   -1.3357   -2.8731 H   0  0  0  0  0  0
    1.8121   -3.7849   -7.2518 H   0  0  0  0  0  0
    3.0710   -3.8792   -9.3711 H   0  0  0  0  0  0
    4.8181   -0.0530   -8.5076 H   0  0  0  0  0  0
    3.5640    0.0432   -6.3850 H   0  0  0  0  0  0
  1  2  2  0  0  0
  1  6  1  0  0  0
  1 49  1  0  0  0
  2  3  1  0  0  0
  2 50  1  0  0  0
  3  4  2  0  0  0
  3 51  1  0  0  0
  4  5  1  0  0  0
  4 52  1  0  0  0
  5  6  2  0  0  0
  5 53  1  0  0  0
  6  7  1  0  0  0
  7  8  1  0  0  0
  7 54  1  0  0  0
  8  9  2  0  0  0
  8 10  1  0  0  0
 10 11  2  0  0  0
 10 15  1  0  0  0
 11 12  1  0  0  0
 11 30  1  0  0  0
 12 13  1  0  0  0
 12 14  1  0  0  0
 12 55  1  0  0  0
 13 56  1  0  0  0
 13 57  1  0  0  0
 13 58  1  0  0  0
 14 59  1  0  0  0
 14 60  1  0  0  0
 14 61  1  0  0  0
 15 16  1  0  0  0
 15 22  2  0  0  0
 16 17  2  0  0  0
 16 21  1  0  0  0
 17 18  1  0  0  0
 17 62  1  0  0  0
 18 19  2  0  0  0
 18 63  1  0  0  0
 19 20  1  0  0  0
 19 64  1  0  0  0
 20 21  2  0  0  0
 20 65  1  0  0  0
 21 66  1  0  0  0
 22 23  1  0  0  0
 22 30  1  0  0  0
 23 24  2  0  0  0
 23 29  1  0  0  0
 24 25  1  0  0  0
 24 67  1  0  0  0
 25 26  2  0  0  0
 25 68  1  0  0  0
 26 27  1  0  0  0
 26 28  1  0  0  0
 28 29  2  0  0  0
 28 69  1  0  0  0
 29 70  1  0  0  0
 30 31  1  0  0  0
 31 32  1  0  0  0
 31 71  1  0  0  0
 31 72  1  0  0  0
 32 33  1  0  0  0
 32 73  1  0  0  0
 32 74  1  0  0  0
 33 34  1  0  0  0
 33 35  1  0  0  0
 33 75  1  0  0  0
 34 76  1  0  0  0
 35 36  1  0  0  0
 35 77  1  0  0  0
 35 78  1  0  0  0
 36 37  1  0  0  0
 36 38  1  0  0  0
 36 79  1  0  0  0
 37 80  1  0  0  0
 38 39  1  0  0  0
 38 81  1  0  0  0
 38 82  1  0  0  0
 39 40  2  0  0  0
 39 41  1  0  0  0
 41 42  1  0  0  0
 42 47  2  0  0  0
 42 43  1  0  0  0
 43 44  2  0  0  0
 43 83  1  0  0  0
 44 45  1  0  0  0
 44 84  1  0  0  0
 45 46  2  0  0  0
 45 48  1  0  0  0
 46 47  1  0  0  0
 46 85  1  0  0  0
 47 86  1  0  0  0
M  END
> <s_m_entry_id>
116

> <s_m_entry_name>
entry

> <i_lp_mmshare_version>
47013

> <i_f3d_flags>
0

> <s_epik_input>
W2NIXTFbY0hdW2NIXVtjSF1bY0hdYzFbTkhdQyg9TyljMmMoW0NIXShbQ0gzXSlbQ0gzXSluKGMoLWMzW2NIXVtjSF1jKEYpW2NIXVtjSF0zKWMyLWM0W2NIXVtjSF1bY0hdW2NIXVtjSF00KVtDSDJdW0NIMl1bQ0BASF0oW09IXSlbQ0gyXVtDQEBIXShbT0hdKVtDSDJdQyg9TylPYzVbY0hdW2NIXWMoQ2wpW2NIXVtjSF01

> <s_epik_cmdline>
J2VwaWtfcHl0aG9uJywgJy1waCcsICc3LjQnLCAnLXRuJywgJzgnLCAnLW1hJywgJzIwMCcsICctaW1hZScsICc8aW5maWxlLm1hZT4nLCAnLW9tYWUnLCAnPG91dGZpbGUubWFlPic=

> <r_epik_Ionization_Penalty>
  0.0000

> <r_epik_Ionization_Penalty_Charging>
  0.0000

> <r_epik_Ionization_Penalty_Neutral>
  0.0000

> <r_epik_State_Penalty>
  0.0000

> <r_epik_Charging_Adjusted_Penalty>
0

> <i_epik_Tot_Q>
0

> <i_epik_Tot_abs_Q>
0

> <s_lp_Force_Field>
OPLS3e

> <r_lp_Energy>
54.692781

> <b_lp_Chiralities_Consistent>
1

> <s_lp_Variant>
M141-1

> <s_m_job_name>
ligprep_21

> <s_m_Source_Path>
/home/andre/Documents/projects/Esterase/data/FINAL_STUFF/Compounds/MAE_external

> <s_m_Source_File>
116.mae

> <i_m_Source_File_Index>
1

> <r_lp_tautomer_probability>
1

$$$$
