119
                    3D
 Schrodinger Suite 2021-1.
 69 71  0  0  1  0            999 V2000
   -1.3775    1.5165   -4.4918 C   0  0  0  0  0  0
   -0.9426    2.4844   -3.3871 C   0  0  0  0  0  0
   -0.9444    1.8030   -2.1403 O   0  0  0  0  0  0
   -0.5240    2.4184   -1.0098 C   0  0  0  0  0  0
   -0.1457    3.5913   -0.9405 O   0  0  0  0  0  0
   -0.5609    1.4683    0.1821 C   0  0  2  0  0  0
   -0.4097    2.2056    1.5390 C   0  0  0  0  0  0
   -0.6797    1.3110    2.7658 C   0  0  0  0  0  0
   -0.4375    2.0319    4.0837 C   0  0  0  0  0  0
    0.7613    1.8385    4.7763 C   0  0  0  0  0  0
    0.9844    2.5047    5.9783 C   0  0  0  0  0  0
    0.0092    3.3622    6.4833 C   0  0  0  0  0  0
   -1.1879    3.5594    5.7979 C   0  0  0  0  0  0
   -1.4122    2.8926    4.5962 C   0  0  0  0  0  0
    0.3778    0.3351   -0.0350 N   0  0  2  0  0  0
    1.8377    0.6196   -0.0672 C   0  0  1  0  0  0
    2.5528    0.3915    1.2809 C   0  0  0  0  0  0
    2.4567   -0.2865   -1.1706 C   0  0  0  0  0  0
    2.0502   -1.4503   -1.2585 O   0  0  0  0  0  0
    3.4071    0.2322   -2.0104 N   0  0  0  0  0  0
    4.3399    1.2783   -1.5499 C   0  0  0  0  0  0
    5.6698    0.6441   -1.1222 C   0  0  0  0  0  0
    6.5184    1.3162   -0.2406 C   0  0  0  0  0  0
    7.7534    0.7784    0.1530 C   0  0  0  0  0  0
    8.1508   -0.4618   -0.3594 C   0  0  0  0  0  0
    7.2997   -1.1392   -1.2461 C   0  0  0  0  0  0
    6.0642   -0.6124   -1.6291 C   0  0  0  0  0  0
    5.1414   -1.3951   -2.5724 C   0  0  0  0  0  0
    4.0113   -0.4993   -3.1596 C   0  0  1  0  0  0
    3.0388   -1.2439   -4.1174 C   0  0  0  0  0  0
    1.8836   -0.7804   -4.2542 O   0  0  0  0  0  0
    3.4810   -2.2325   -4.7449 O   0  5  0  0  0  0
    9.3785   -0.9508    0.0526 O   0  0  0  0  0  0
    9.8327   -2.2084   -0.4358 C   0  0  0  0  0  0
    8.6207    1.4066    1.0303 O   0  0  0  0  0  0
    8.2607    2.6633    1.5934 C   0  0  0  0  0  0
   -1.3750    2.0110   -5.4632 H   0  0  0  0  0  0
   -2.3846    1.1387   -4.3126 H   0  0  0  0  0  0
   -0.7035    0.6611   -4.5537 H   0  0  0  0  0  0
    0.0569    2.8650   -3.6039 H   0  0  0  0  0  0
   -1.6207    3.3382   -3.3470 H   0  0  0  0  0  0
   -1.5675    1.0478    0.1897 H   0  0  0  0  0  0
    0.5817    2.6538    1.6204 H   0  0  0  0  0  0
   -1.0953    3.0541    1.5868 H   0  0  0  0  0  0
   -1.7089    0.9493    2.7435 H   0  0  0  0  0  0
   -0.0646    0.4107    2.7285 H   0  0  0  0  0  0
    1.5196    1.1751    4.3864 H   0  0  0  0  0  0
    1.9094    2.3578    6.5161 H   0  0  0  0  0  0
    0.1831    3.8795    7.4153 H   0  0  0  0  0  0
   -1.9375    4.2273    6.1960 H   0  0  0  0  0  0
   -2.3391    3.0476    4.0630 H   0  0  0  0  0  0
    0.1086   -0.1762   -0.8648 H   0  0  0  0  0  0
    1.9928    1.6515   -0.3764 H   0  0  0  0  0  0
    3.6339    0.5064    1.1937 H   0  0  0  0  0  0
    2.3619   -0.6092    1.6714 H   0  0  0  0  0  0
    2.2248    1.1056    2.0337 H   0  0  0  0  0  0
    4.5304    1.9625   -2.3777 H   0  0  0  0  0  0
    3.9563    1.8973   -0.7420 H   0  0  0  0  0  0
    6.1948    2.2753    0.1346 H   0  0  0  0  0  0
    7.5804   -2.1013   -1.6473 H   0  0  0  0  0  0
    5.7338   -1.8370   -3.3753 H   0  0  0  0  0  0
    4.7050   -2.2268   -2.0163 H   0  0  0  0  0  0
    4.4555    0.2346   -3.8340 H   0  0  0  0  0  0
   10.8123   -2.4264   -0.0108 H   0  0  0  0  0  0
    9.9387   -2.2013   -1.5216 H   0  0  0  0  0  0
    9.1604   -3.0171   -0.1454 H   0  0  0  0  0  0
    9.0532    2.9977    2.2627 H   0  0  0  0  0  0
    7.3431    2.5915    2.1794 H   0  0  0  0  0  0
    8.1365    3.4254    0.8228 H   0  0  0  0  0  0
  1  2  1  0  0  0
  1 37  1  0  0  0
  1 38  1  0  0  0
  1 39  1  0  0  0
  2  3  1  0  0  0
  2 40  1  0  0  0
  2 41  1  0  0  0
  3  4  1  0  0  0
  4  5  2  0  0  0
  4  6  1  0  0  0
  6  7  1  0  0  0
  6 15  1  0  0  0
  6 42  1  0  0  0
  7  8  1  0  0  0
  7 43  1  0  0  0
  7 44  1  0  0  0
  8  9  1  0  0  0
  8 45  1  0  0  0
  8 46  1  0  0  0
  9 14  1  0  0  0
  9 10  2  0  0  0
 10 11  1  0  0  0
 10 47  1  0  0  0
 11 12  2  0  0  0
 11 48  1  0  0  0
 12 13  1  0  0  0
 12 49  1  0  0  0
 13 14  2  0  0  0
 13 50  1  0  0  0
 14 51  1  0  0  0
 15 16  1  0  0  0
 15 52  1  0  0  0
 16 17  1  0  0  0
 16 18  1  0  0  0
 16 53  1  0  0  0
 17 54  1  0  0  0
 17 55  1  0  0  0
 17 56  1  0  0  0
 18 19  2  0  0  0
 18 20  1  0  0  0
 20 29  1  0  0  0
 20 21  1  0  0  0
 21 22  1  0  0  0
 21 57  1  0  0  0
 21 58  1  0  0  0
 22 27  2  0  0  0
 22 23  1  0  0  0
 23 24  2  0  0  0
 23 59  1  0  0  0
 24 25  1  0  0  0
 24 35  1  0  0  0
 25 26  2  0  0  0
 25 33  1  0  0  0
 26 27  1  0  0  0
 26 60  1  0  0  0
 27 28  1  0  0  0
 28 29  1  0  0  0
 28 61  1  0  0  0
 28 62  1  0  0  0
 29 30  1  0  0  0
 29 63  1  0  0  0
 30 31  2  0  0  0
 30 32  1  0  0  0
 33 34  1  0  0  0
 34 64  1  0  0  0
 34 65  1  0  0  0
 34 66  1  0  0  0
 35 36  1  0  0  0
 36 67  1  0  0  0
 36 68  1  0  0  0
 36 69  1  0  0  0
M  CHG  1  32  -1
M  END
> <s_m_entry_id>
119

> <s_m_entry_name>
entry

> <i_lp_mmshare_version>
47013

> <i_f3d_flags>
0

> <s_epik_input>
W2NIXTFbY0hdW2NIXVtjSF1bY0hdYzFbQ0gyXVtDSDJdW0NAQEhdKEMoPU8pT1tDSDJdW0NIM10pW05IXVtDQEBIXShbQ0gzXSlDKD1PKU4oW0NIMl0yKVtDQEhdKEMoPU8pW09IXSlbQ0gyXWMoYzIzKVtjSF1jKE9bQ0gzXSljKFtjSF0zKU9bQ0gzXQ==

> <s_epik_cmdline>
J2VwaWtfcHl0aG9uJywgJy1waCcsICc3LjQnLCAnLXRuJywgJzgnLCAnLW1hJywgJzIwMCcsICctbWV0YWxfYmluZGluZycsICctaW1hZScsICc8aW5maWxlLm1hZT4nLCAnLW9tYWUnLCAnPG91dGZpbGUubWFlPic=

> <r_epik_Ionization_Penalty>
  0.0712

> <r_epik_Ionization_Penalty_Charging>
  0.0001

> <r_epik_Ionization_Penalty_Neutral>
  0.0711

> <r_epik_State_Penalty>
  0.0624

> <r_epik_Charging_Adjusted_Penalty>
0.0624997394447444

> <i_epik_Tot_Q>
-1

> <i_epik_Tot_abs_Q>
1

> <s_lp_Force_Field>
OPLS3e

> <r_lp_Energy>
64.294545

> <b_lp_Chiralities_Consistent>
1

> <s_lp_Variant>
91270-1

> <s_m_job_name>
ligprep_28

> <s_m_Source_Path>
/home/andre/Documents/projects/Esterase/data/FINAL_STUFF/Compounds/MAE_external

> <s_m_Source_File>
119.mae

> <i_m_Source_File_Index>
1

> <r_lp_tautomer_probability>
1

> <s_epik_Chemistry_Notes>
This compound has an ester and may undergo hydrolysis at high or low pH.

> <r_epik_Metal_State_Penalty>
  0.0624

> <b_epik_Metal_Only>
0

$$$$
