120
                    3D
 Schrodinger Suite 2021-1.
 84 86  0  0  1  0            999 V2000
   -0.6800    1.5957   -5.9698 C   0  0  0  0  0  0
   -1.2025    1.0438   -4.6317 C   0  0  0  0  0  0
   -0.2670    1.2676   -3.4372 C   0  0  0  0  0  0
    0.8724    1.7243   -3.5605 O   0  0  0  0  0  0
   -0.8571    0.9141   -2.2775 O   0  0  0  0  0  0
   -0.1922    1.0726   -1.0267 C   0  0  1  0  0  0
   -1.2370    1.0950    0.1171 C   0  0  0  0  0  0
   -2.0131   -0.2314    0.2453 C   0  0  0  0  0  0
   -2.1952    2.2957   -0.0005 C   0  0  0  0  0  0
    0.7518    0.0269   -0.8261 O   0  0  0  0  0  0
    2.1118    0.2741    0.0430 P   0  0  1  0  0  0
    2.5190    1.7040    0.1410 O   0  0  0  0  0  0
    1.6893   -0.5772    1.6290 C   0  0  0  0  0  0
    2.4910   -0.0265    2.8240 C   0  0  0  0  0  0
    4.0126   -0.2715    2.7438 C   0  0  0  0  0  0
    4.8002    0.2760    3.9505 C   0  0  0  0  0  0
    4.7562    1.7949    4.0654 C   0  0  0  0  0  0
    5.5235    2.5792    3.1995 C   0  0  0  0  0  0
    5.4751    3.9677    3.2916 C   0  0  0  0  0  0
    4.6611    4.5675    4.2502 C   0  0  0  0  0  0
    3.8953    3.7916    5.1181 C   0  0  0  0  0  0
    3.9430    2.4028    5.0262 C   0  0  0  0  0  0
    3.2754   -0.8617   -0.8153 C   0  0  0  0  0  0
    3.8441   -0.3148   -2.1324 C   0  0  0  0  0  0
    4.6794    0.5888   -2.0545 O   0  0  0  0  0  0
    3.4471   -0.8340   -3.3250 N   0  0  0  0  0  0
    3.9533   -0.2817   -4.5905 C   0  0  0  0  0  0
    3.1928   -1.0426   -5.6883 C   0  0  1  0  0  0
    1.9339   -1.5189   -4.9652 C   0  0  0  0  0  0
    2.3917   -1.8495   -3.5386 C   0  0  1  0  0  0
    2.8872   -3.3026   -3.3106 C   0  0  0  0  0  0
    2.1015   -4.2137   -3.6529 O   0  0  0  0  0  0
    4.0104   -3.4982   -2.7919 O   0  5  0  0  0  0
    2.9668   -0.2047   -6.9761 C   0  0  0  0  0  0
    2.0584   -0.9206   -8.0068 C   0  0  0  0  0  0
    1.7825   -0.0269   -9.2333 C   0  0  0  0  0  0
    3.0930    0.4362   -9.9046 C   0  0  0  0  0  0
    4.0794    1.0641   -8.8970 C   0  0  0  0  0  0
    4.3028    0.1487   -7.6759 C   0  0  0  0  0  0
   -1.4134    1.4402   -6.7609 H   0  0  0  0  0  0
    0.2385    1.0974   -6.2769 H   0  0  0  0  0  0
   -0.4802    2.6667   -5.9132 H   0  0  0  0  0  0
   -2.1638    1.5051   -4.4040 H   0  0  0  0  0  0
   -1.3807   -0.0276   -4.7282 H   0  0  0  0  0  0
    0.3271    2.0333   -1.0315 H   0  0  0  0  0  0
   -0.6878    1.2402    1.0472 H   0  0  0  0  0  0
   -2.6172   -0.4294   -0.6408 H   0  0  0  0  0  0
   -2.6840   -0.2140    1.1048 H   0  0  0  0  0  0
   -1.3378   -1.0770    0.3791 H   0  0  0  0  0  0
   -2.8132    2.2315   -0.8970 H   0  0  0  0  0  0
   -1.6449    3.2363   -0.0440 H   0  0  0  0  0  0
   -2.8657    2.3515    0.8579 H   0  0  0  0  0  0
    0.6289   -0.4396    1.8310 H   0  0  0  0  0  0
    1.8353   -1.6525    1.5254 H   0  0  0  0  0  0
    2.2922    1.0421    2.9170 H   0  0  0  0  0  0
    2.1083   -0.4793    3.7397 H   0  0  0  0  0  0
    4.1957   -1.3435    2.6609 H   0  0  0  0  0  0
    4.4169    0.1721    1.8337 H   0  0  0  0  0  0
    4.4410   -0.1809    4.8741 H   0  0  0  0  0  0
    5.8448   -0.0289    3.8703 H   0  0  0  0  0  0
    6.1507    2.1147    2.4523 H   0  0  0  0  0  0
    6.0629    4.5768    2.6209 H   0  0  0  0  0  0
    4.6219    5.6447    4.3201 H   0  0  0  0  0  0
    3.2661    4.2652    5.8572 H   0  0  0  0  0  0
    3.3446    1.8029    5.6965 H   0  0  0  0  0  0
    4.1152   -1.0735   -0.1544 H   0  0  0  0  0  0
    2.7748   -1.8170   -0.9532 H   0  0  0  0  0  0
    3.6425    0.7645   -4.6131 H   0  0  0  0  0  0
    5.0344   -0.3718   -4.7045 H   0  0  0  0  0  0
    3.7833   -1.9298   -5.9276 H   0  0  0  0  0  0
    1.2231   -0.6957   -4.9111 H   0  0  0  0  0  0
    1.4143   -2.3261   -5.4830 H   0  0  0  0  0  0
    1.5603   -1.6794   -2.8534 H   0  0  0  0  0  0
    2.4818    0.7329   -6.6996 H   0  0  0  0  0  0
    2.5062   -1.8691   -8.3083 H   0  0  0  0  0  0
    1.1091   -1.1966   -7.5474 H   0  0  0  0  0  0
    1.1650   -0.5631   -9.9546 H   0  0  0  0  0  0
    1.2035    0.8449   -8.9249 H   0  0  0  0  0  0
    3.5696   -0.4193  -10.3858 H   0  0  0  0  0  0
    2.8720    1.1474  -10.7014 H   0  0  0  0  0  0
    5.0312    1.2698   -9.3878 H   0  0  0  0  0  0
    3.6938    2.0286   -8.5629 H   0  0  0  0  0  0
    4.9750    0.6434   -6.9739 H   0  0  0  0  0  0
    4.8281   -0.7631   -7.9651 H   0  0  0  0  0  0
  1  2  1  0  0  0
  1 40  1  0  0  0
  1 41  1  0  0  0
  1 42  1  0  0  0
  2  3  1  0  0  0
  2 43  1  0  0  0
  2 44  1  0  0  0
  3  4  2  0  0  0
  3  5  1  0  0  0
  5  6  1  0  0  0
  6  7  1  0  0  0
  6 10  1  0  0  0
  6 45  1  0  0  0
  7  8  1  0  0  0
  7  9  1  0  0  0
  7 46  1  0  0  0
  8 47  1  0  0  0
  8 48  1  0  0  0
  8 49  1  0  0  0
  9 50  1  0  0  0
  9 51  1  0  0  0
  9 52  1  0  0  0
 10 11  1  0  0  0
 11 12  2  0  0  0
 11 13  1  0  0  0
 11 23  1  0  0  0
 13 14  1  0  0  0
 13 53  1  0  0  0
 13 54  1  0  0  0
 14 15  1  0  0  0
 14 55  1  0  0  0
 14 56  1  0  0  0
 15 16  1  0  0  0
 15 57  1  0  0  0
 15 58  1  0  0  0
 16 17  1  0  0  0
 16 59  1  0  0  0
 16 60  1  0  0  0
 17 22  1  0  0  0
 17 18  2  0  0  0
 18 19  1  0  0  0
 18 61  1  0  0  0
 19 20  2  0  0  0
 19 62  1  0  0  0
 20 21  1  0  0  0
 20 63  1  0  0  0
 21 22  2  0  0  0
 21 64  1  0  0  0
 22 65  1  0  0  0
 23 24  1  0  0  0
 23 66  1  0  0  0
 23 67  1  0  0  0
 24 25  2  0  0  0
 24 26  1  0  0  0
 26 30  1  0  0  0
 26 27  1  0  0  0
 27 28  1  0  0  0
 27 68  1  0  0  0
 27 69  1  0  0  0
 28 29  1  0  0  0
 28 34  1  0  0  0
 28 70  1  0  0  0
 29 30  1  0  0  0
 29 71  1  0  0  0
 29 72  1  0  0  0
 30 31  1  0  0  0
 30 73  1  0  0  0
 31 32  2  0  0  0
 31 33  1  0  0  0
 34 39  1  0  0  0
 34 35  1  0  0  0
 34 74  1  0  0  0
 35 36  1  0  0  0
 35 75  1  0  0  0
 35 76  1  0  0  0
 36 37  1  0  0  0
 36 77  1  0  0  0
 36 78  1  0  0  0
 37 38  1  0  0  0
 37 79  1  0  0  0
 37 80  1  0  0  0
 38 39  1  0  0  0
 38 81  1  0  0  0
 38 82  1  0  0  0
 39 83  1  0  0  0
 39 84  1  0  0  0
M  CHG  1  33  -1
M  END
> <s_m_entry_id>
120

> <s_m_entry_name>
entry

> <i_lp_mmshare_version>
47013

> <i_f3d_flags>
0

> <s_epik_input>
W2NIXTFbY0hdW2NIXVtjSF1bY0hdYzFbQ0gyXVtDSDJdW0NIMl1bQ0gyXVtQQF0oPU8pKE9bQ0BIXShbQ0hdKFtDSDNdKVtDSDNdKU9DKD1PKVtDSDJdW0NIM10pW0NIMl1DKD1PKU4yW0NIMl1bQ0BASF0oW0NIMl1bQ0BIXTJDKD1PKVtPSF0pW0NIXTNbQ0gyXVtDSDJdW0NIMl1bQ0gyXVtDSDJdMw==

> <s_epik_cmdline>
J2VwaWtfcHl0aG9uJywgJy1waCcsICc3LjQnLCAnLXRuJywgJzgnLCAnLW1hJywgJzIwMCcsICctbWV0YWxfYmluZGluZycsICctaW1hZScsICc8aW5maWxlLm1hZT4nLCAnLW9tYWUnLCAnPG91dGZpbGUubWFlPic=

> <r_epik_Ionization_Penalty>
  0.0002

> <r_epik_Ionization_Penalty_Charging>
  0.0002

> <r_epik_Ionization_Penalty_Neutral>
  0.0000

> <r_epik_State_Penalty>
  0.0000

> <r_epik_Charging_Adjusted_Penalty>
0.000154076189744345

> <i_epik_Tot_Q>
-1

> <i_epik_Tot_abs_Q>
1

> <s_lp_Force_Field>
OPLS3e

> <r_lp_Energy>
14.771268

> <b_lp_Chiralities_Consistent>
1

> <s_lp_Variant>
55891-1

> <s_m_job_name>
ligprep_29

> <s_m_Source_Path>
/home/andre/Documents/projects/Esterase/data/FINAL_STUFF/Compounds/MAE_external

> <s_m_Source_File>
120.mae

> <i_m_Source_File_Index>
1

> <r_lp_tautomer_probability>
1

> <s_epik_Chemistry_Notes>
This compound has an ester and may undergo hydrolysis at high or low pH. This compound contains an acetal/aminal-like group ( X-CH(R)-Y where X, Y are N, S, or O) that may be acid/base labile, releasing an aldehyde.

> <r_epik_Metal_State_Penalty>
  0.0000

> <b_epik_Metal_Only>
0

$$$$
