124
                    3D
 Schrodinger Suite 2021-1.
 69 72  0  0  1  0            999 V2000
   -0.7930   -3.5293    3.5395 C   0  0  0  0  0  0
   -0.8151   -2.3510    2.7857 C   0  0  0  0  0  0
   -1.7309   -1.2911    3.0511 C   0  0  0  0  0  0
   -2.6401   -1.4392    4.1077 C   0  0  0  0  0  0
   -2.6158   -2.6117    4.8597 C   0  0  0  0  0  0
   -1.7172   -3.6448    4.5931 C   0  0  0  0  0  0
   -1.4731   -0.2603    2.0867 C   0  0  0  0  0  0
   -0.4186   -0.6915    1.3025 C   0  0  0  0  0  0
   -0.0461   -1.9485    1.7141 N   0  0  0  0  0  0
    0.2361    0.1090    0.1689 C   0  0  1  0  0  0
   -0.5046    1.3983   -0.0305 N   0  0  0  0  0  0
   -1.9697    1.3904    0.3275 C   0  0  1  0  0  0
   -2.1183    1.0886    1.8443 C   0  0  0  0  0  0
   -0.0173    2.4123   -0.8054 C   0  0  0  0  0  0
   -0.7493    3.7542   -0.5515 C   0  0  1  0  0  0
   -2.2075    3.6185   -0.6274 N   0  0  0  0  0  0
   -2.8787    2.5675   -0.1249 C   0  0  0  0  0  0
    1.7864    0.1776    0.3693 C   0  0  0  0  0  0
    2.3502    1.2134    1.3840 C   0  0  0  0  0  0
    3.8893    1.2274    1.3443 C   0  0  0  0  0  0
    1.8501    1.0126    2.8268 C   0  0  0  0  0  0
   -4.1067    2.5277   -0.1046 O   0  0  0  0  0  0
   -0.1983    4.3767    0.7587 C   0  0  0  0  0  0
   -0.7516    5.7892    1.0438 C   0  0  0  0  0  0
   -0.2520    6.3675    2.3694 C   0  0  0  0  0  0
    1.1041    6.5065    2.3969 O   0  0  0  0  0  0
   -1.0380    6.6486    3.2742 O   0  0  0  0  0  0
    1.8678    6.9791    3.5211 C   0  0  0  0  0  0
    1.7119    6.0354    4.7395 C   0  0  0  0  0  0
    1.4869    8.4335    3.8930 C   0  0  0  0  0  0
    3.3301    6.9426    3.0314 C   0  0  0  0  0  0
    0.9554    2.3327   -1.5564 O   0  0  0  0  0  0
   -1.8072   -4.7491    5.4190 O   0  0  0  0  0  0
   -0.9268   -5.8489    5.2133 C   0  0  0  0  0  0
   -0.0858   -4.3121    3.3111 H   0  0  0  0  0  0
   -3.3504   -0.6591    4.3389 H   0  0  0  0  0  0
   -3.3175   -2.7214    5.6742 H   0  0  0  0  0  0
    0.7046   -2.4597    1.2728 H   0  0  0  0  0  0
    0.0851   -0.4508   -0.7552 H   0  0  0  0  0  0
   -2.4062    0.5428   -0.2042 H   0  0  0  0  0  0
   -3.1719    1.0502    2.1264 H   0  0  0  0  0  0
   -1.6568    1.8643    2.4563 H   0  0  0  0  0  0
   -0.4847    4.4067   -1.3854 H   0  0  0  0  0  0
   -2.7442    4.3977   -0.9800 H   0  0  0  0  0  0
    2.1632   -0.8129    0.6286 H   0  0  0  0  0  0
    2.2399    0.3750   -0.6023 H   0  0  0  0  0  0
    2.0304    2.2079    1.0754 H   0  0  0  0  0  0
    4.3060    0.2692    1.6576 H   0  0  0  0  0  0
    4.2962    1.9964    2.0021 H   0  0  0  0  0  0
    4.2576    1.4367    0.3392 H   0  0  0  0  0  0
    2.0414   -0.0009    3.1809 H   0  0  0  0  0  0
    0.7812    1.2028    2.9086 H   0  0  0  0  0  0
    2.3396    1.7024    3.5153 H   0  0  0  0  0  0
   -0.4269    3.7286    1.6073 H   0  0  0  0  0  0
    0.8914    4.4350    0.7044 H   0  0  0  0  0  0
   -0.4845    6.4719    0.2367 H   0  0  0  0  0  0
   -1.8415    5.7592    1.0690 H   0  0  0  0  0  0
    2.3900    6.3136    5.5473 H   0  0  0  0  0  0
    1.9310    5.0013    4.4697 H   0  0  0  0  0  0
    0.7015    6.0538    5.1480 H   0  0  0  0  0  0
    0.4730    8.5070    4.2857 H   0  0  0  0  0  0
    1.5445    9.0917    3.0253 H   0  0  0  0  0  0
    2.1552    8.8367    4.6547 H   0  0  0  0  0  0
    4.0218    7.2811    3.8040 H   0  0  0  0  0  0
    3.4755    7.5814    2.1590 H   0  0  0  0  0  0
    3.6300    5.9341    2.7423 H   0  0  0  0  0  0
   -1.1395   -6.6223    5.9512 H   0  0  0  0  0  0
    0.1166   -5.5544    5.3358 H   0  0  0  0  0  0
   -1.0617   -6.2906    4.2247 H   0  0  0  0  0  0
  1  2  2  0  0  0
  1  6  1  0  0  0
  1 35  1  0  0  0
  2  3  1  0  0  0
  2  9  1  0  0  0
  3  4  2  0  0  0
  3  7  1  0  0  0
  4  5  1  0  0  0
  4 36  1  0  0  0
  5  6  2  0  0  0
  5 37  1  0  0  0
  6 33  1  0  0  0
  7  8  2  0  0  0
  7 13  1  0  0  0
  8  9  1  0  0  0
  8 10  1  0  0  0
  9 38  1  0  0  0
 10 11  1  0  0  0
 10 18  1  0  0  0
 10 39  1  0  0  0
 11 12  1  0  0  0
 11 14  1  0  0  0
 12 13  1  0  0  0
 12 17  1  0  0  0
 12 40  1  0  0  0
 13 41  1  0  0  0
 13 42  1  0  0  0
 14 15  1  0  0  0
 14 32  2  0  0  0
 15 16  1  0  0  0
 15 23  1  0  0  0
 15 43  1  0  0  0
 16 17  1  0  0  0
 16 44  1  0  0  0
 17 22  2  0  0  0
 18 19  1  0  0  0
 18 45  1  0  0  0
 18 46  1  0  0  0
 19 20  1  0  0  0
 19 21  1  0  0  0
 19 47  1  0  0  0
 20 48  1  0  0  0
 20 49  1  0  0  0
 20 50  1  0  0  0
 21 51  1  0  0  0
 21 52  1  0  0  0
 21 53  1  0  0  0
 23 24  1  0  0  0
 23 54  1  0  0  0
 23 55  1  0  0  0
 24 25  1  0  0  0
 24 56  1  0  0  0
 24 57  1  0  0  0
 25 26  1  0  0  0
 25 27  2  0  0  0
 26 28  1  0  0  0
 28 29  1  0  0  0
 28 30  1  0  0  0
 28 31  1  0  0  0
 29 58  1  0  0  0
 29 59  1  0  0  0
 29 60  1  0  0  0
 30 61  1  0  0  0
 30 62  1  0  0  0
 30 63  1  0  0  0
 31 64  1  0  0  0
 31 65  1  0  0  0
 31 66  1  0  0  0
 33 34  1  0  0  0
 34 67  1  0  0  0
 34 68  1  0  0  0
 34 69  1  0  0  0
M  END
> <s_m_entry_id>
124

> <s_m_entry_name>
entry

> <i_lp_mmshare_version>
47013

> <i_f3d_flags>
0

> <s_epik_input>
W0NIM11PYyhbY0hdMSlbY0hdW2NIXWMoYzEyKWMzYyhbbkhdMilbQ0BIXShbQ0gyXVtDSF0oW0NIM10pW0NIM10pTjRbQ0BASF0oW0NIMl0zKUMoPU8pW05IXVtDQEhdKEM0PU8pW0NIMl1bQ0gyXUMoPU8pT0MoW0NIM10pKFtDSDNdKVtDSDNd

> <s_epik_cmdline>
J2VwaWtfcHl0aG9uJywgJy1waCcsICc3LjQnLCAnLXRuJywgJzgnLCAnLW1hJywgJzIwMCcsICctbWV0YWxfYmluZGluZycsICctaW1hZScsICc8aW5maWxlLm1hZT4nLCAnLW9tYWUnLCAnPG91dGZpbGUubWFlPic=

> <r_epik_Ionization_Penalty>
  0.0000

> <r_epik_Ionization_Penalty_Charging>
  0.0000

> <r_epik_Ionization_Penalty_Neutral>
  0.0000

> <r_epik_State_Penalty>
  0.0000

> <r_epik_Charging_Adjusted_Penalty>
0

> <i_epik_Tot_Q>
0

> <i_epik_Tot_abs_Q>
0

> <s_lp_Force_Field>
OPLS3e

> <r_lp_Energy>
47.123256

> <b_lp_Chiralities_Consistent>
1

> <s_lp_Variant>
10322450-1

> <s_m_job_name>
ligprep_35

> <s_m_Source_Path>
/home/andre/Documents/projects/Esterase/data/FINAL_STUFF/Compounds/MAE_external

> <s_m_Source_File>
124.mae

> <i_m_Source_File_Index>
1

> <r_lp_tautomer_probability>
1

> <s_epik_Chemistry_Notes>
This compound has an ester and may undergo hydrolysis at high or low pH.

> <r_epik_Metal_State_Penalty>
  0.0000

> <b_epik_Metal_Only>
0

$$$$
