127
                    3D
 Schrodinger Suite 2021-1.
 55 56  0  0  1  0            999 V2000
    0.3655   -0.0941    0.2607 O   0  0  0  0  0  0
    1.7873   -0.1769    0.1166 C   0  0  1  0  0  0
    2.1859   -1.6600    0.2443 C   0  0  0  0  0  0
    1.8280   -2.1230    1.5439 O   0  0  0  0  0  0
    2.0223   -3.4515    1.8811 C   0  0  0  0  0  0
    1.5928   -3.8776    3.1743 C   0  0  0  0  0  0
    0.9838   -2.9857    4.1004 C   0  0  0  0  0  0
    0.5722   -3.4318    5.3531 C   0  0  0  0  0  0
    0.7495   -4.7592    5.7236 C   0  0  0  0  0  0
    1.3411   -5.6636    4.8473 C   0  0  0  0  0  0
    1.7712   -5.2431    3.5637 C   0  0  0  0  0  0
    2.3732   -6.1478    2.6586 C   0  0  0  0  0  0
    2.7872   -5.7142    1.4056 C   0  0  0  0  0  0
    2.6156   -4.3899    1.0222 C   0  0  0  0  0  0
    2.2691    0.4552   -1.2134 C   0  0  0  0  0  0
    1.5188   -0.1611   -2.4101 N   0  3  0  0  0  0
    1.7504    0.5196   -3.7723 C   0  0  0  0  0  0
    0.7382   -0.0677   -4.7680 C   0  0  0  0  0  0
    3.2107    0.3293   -4.2232 C   0  0  0  0  0  0
   -0.2555    1.0612    0.5921 C   0  0  0  0  0  0
   -1.7733    0.8741    0.7057 C   0  0  0  0  0  0
    0.2964    2.1474    0.7826 O   0  0  0  0  0  0
   -2.5618    2.1638    1.0149 C   0  0  0  0  0  0
   -4.0740    1.9116    1.1365 C   0  0  0  0  0  0
   -4.8730    3.1910    1.4182 C   0  0  0  0  0  0
    2.2649    0.3579    0.9403 H   0  0  0  0  0  0
    1.6846   -2.2527   -0.5236 H   0  0  0  0  0  0
    3.2632   -1.7667    0.1043 H   0  0  0  0  0  0
    0.8362   -1.9497    3.8317 H   0  0  0  0  0  0
    0.1109   -2.7408    6.0432 H   0  0  0  0  0  0
    0.4253   -5.0912    6.6990 H   0  0  0  0  0  0
    1.4741   -6.6941    5.1437 H   0  0  0  0  0  0
    2.5102   -7.1803    2.9468 H   0  0  0  0  0  0
    3.2471   -6.4133    0.7226 H   0  0  0  0  0  0
    2.9572   -4.1072    0.0384 H   0  0  0  0  0  0
    2.0594    1.5247   -1.2585 H   0  0  0  0  0  0
    3.3307    0.2834   -1.3919 H   0  0  0  0  0  0
    1.7595   -1.1393   -2.4855 H   0  0  0  0  0  0
    1.5270    1.5730   -3.5933 H   0  0  0  0  0  0
    0.8221    0.4165   -5.7416 H   0  0  0  0  0  0
   -0.2876    0.0736   -4.4245 H   0  0  0  0  0  0
    0.8946   -1.1368   -4.9182 H   0  0  0  0  0  0
    3.3720    0.7699   -5.2077 H   0  0  0  0  0  0
    3.4774   -0.7263   -4.2894 H   0  0  0  0  0  0
    3.9141    0.8116   -3.5449 H   0  0  0  0  0  0
   -2.1384    0.4408   -0.2259 H   0  0  0  0  0  0
   -1.9656    0.1373    1.4863 H   0  0  0  0  0  0
   -2.1962    2.6073    1.9431 H   0  0  0  0  0  0
   -2.3810    2.9018    0.2311 H   0  0  0  0  0  0
   -4.4451    1.4549    0.2181 H   0  0  0  0  0  0
   -4.2619    1.1906    1.9332 H   0  0  0  0  0  0
   -5.9379    2.9741    1.5071 H   0  0  0  0  0  0
   -4.7501    3.9185    0.6152 H   0  0  0  0  0  0
   -4.5531    3.6616    2.3483 H   0  0  0  0  0  0
    0.5308   -0.1061   -2.2061 H   0  0  0  0  0  0
  1  2  1  0  0  0
  1 20  1  0  0  0
  2  3  1  0  0  0
  2 15  1  0  0  0
  2 26  1  0  0  0
  3  4  1  0  0  0
  3 27  1  0  0  0
  3 28  1  0  0  0
  4  5  1  0  0  0
  5  6  2  0  0  0
  5 14  1  0  0  0
  6  7  1  0  0  0
  6 11  1  0  0  0
  7  8  2  0  0  0
  7 29  1  0  0  0
  8  9  1  0  0  0
  8 30  1  0  0  0
  9 10  2  0  0  0
  9 31  1  0  0  0
 10 11  1  0  0  0
 10 32  1  0  0  0
 11 12  2  0  0  0
 12 13  1  0  0  0
 12 33  1  0  0  0
 13 14  2  0  0  0
 13 34  1  0  0  0
 14 35  1  0  0  0
 15 16  1  0  0  0
 15 36  1  0  0  0
 15 37  1  0  0  0
 16 17  1  0  0  0
 16 38  1  0  0  0
 16 55  1  0  0  0
 17 18  1  0  0  0
 17 19  1  0  0  0
 17 39  1  0  0  0
 18 40  1  0  0  0
 18 41  1  0  0  0
 18 42  1  0  0  0
 19 43  1  0  0  0
 19 44  1  0  0  0
 19 45  1  0  0  0
 20 21  1  0  0  0
 20 22  2  0  0  0
 21 23  1  0  0  0
 21 46  1  0  0  0
 21 47  1  0  0  0
 23 24  1  0  0  0
 23 48  1  0  0  0
 23 49  1  0  0  0
 24 25  1  0  0  0
 24 50  1  0  0  0
 24 51  1  0  0  0
 25 52  1  0  0  0
 25 53  1  0  0  0
 25 54  1  0  0  0
M  CHG  1  16   1
M  END
> <s_m_entry_id>
127

> <s_m_entry_name>
entry

> <i_lp_mmshare_version>
47013

> <i_f3d_flags>
0

> <s_epik_input>
W0NIM11bQ0gyXVtDSDJdW0NIMl1DKD1PKU9bQ0BIXShbQ0gyXVtOSF1bQ0hdKFtDSDNdKVtDSDNdKVtDSDJdT2MxW2NIXVtjSF1bY0hdYyhjMTIpW2NIXVtjSF1bY0hdW2NIXTI=

> <s_epik_cmdline>
J2VwaWtfcHl0aG9uJywgJy1waCcsICc3LjQnLCAnLXRuJywgJzgnLCAnLW1hJywgJzIwMCcsICctaW1hZScsICc8aW5maWxlLm1hZT4nLCAnLW9tYWUnLCAnPG91dGZpbGUubWFlPic=

> <r_epik_Ionization_Penalty>
  0.0218

> <r_epik_Ionization_Penalty_Charging>
  0.0218

> <r_epik_Ionization_Penalty_Neutral>
  0.0000

> <r_epik_State_Penalty>
  0.0176

> <r_epik_Charging_Adjusted_Penalty>
0.0393618896294998

> <i_epik_Tot_Q>
1

> <i_epik_Tot_abs_Q>
1

> <s_lp_Force_Field>
OPLS3e

> <r_lp_Energy>
26.951965

> <b_lp_Chiralities_Consistent>
1

> <s_lp_Variant>
287-1

> <s_m_job_name>
ligprep_2

> <s_m_Source_Path>
/home/andre/Documents/projects/Esterase/data/FINAL_STUFF/Compounds/MAE_external

> <s_m_Source_File>
127.mae

> <i_m_Source_File_Index>
1

> <s_epik_Chemistry_Notes>
This compound has an ester and may undergo hydrolysis at high or low pH.

$$$$
