128
                    3D
 Schrodinger Suite 2021-1.
 55 56  0  0  1  0            999 V2000
    0.2129    0.2715    0.0661 O   0  0  0  0  0  0
    1.6374    0.1443    0.0338 C   0  0  1  0  0  0
    1.9678   -1.3178    0.3953 C   0  0  0  0  0  0
    3.3811   -1.5001    0.3757 O   0  0  0  0  0  0
    3.9184   -2.7540    0.6111 C   0  0  0  0  0  0
    5.3367   -2.8942    0.5281 C   0  0  0  0  0  0
    6.1873   -1.7971    0.2166 C   0  0  0  0  0  0
    7.5673   -1.9645    0.1442 C   0  0  0  0  0  0
    8.1409   -3.2094    0.3731 C   0  0  0  0  0  0
    7.3440   -4.3084    0.6784 C   0  0  0  0  0  0
    5.9354   -4.1728    0.7621 C   0  0  0  0  0  0
    5.1088   -5.2773    1.0734 C   0  0  0  0  0  0
    3.7309   -5.1209    1.1528 C   0  0  0  0  0  0
    3.1446   -3.8820    0.9261 C   0  0  0  0  0  0
    2.2260    0.5847   -1.3320 C   0  0  0  0  0  0
    1.5734   -0.2052   -2.4823 N   0  3  0  0  0  0
    2.0125    0.1935   -3.9034 C   0  0  0  0  0  0
    1.0297   -0.4482   -4.8949 C   0  0  0  0  0  0
    3.4707   -0.2389   -4.1456 C   0  0  0  0  0  0
   -0.3964    1.4732    0.1959 C   0  0  0  0  0  0
   -1.9261    1.3376    0.2117 C   0  0  0  0  0  0
    0.1725    2.5622    0.2986 O   0  0  0  0  0  0
   -2.7089    2.5436    0.7915 C   0  0  0  0  0  0
   -2.4431    2.7644    2.2957 C   0  0  0  0  0  0
   -4.2157    2.3811    0.5256 C   0  0  0  0  0  0
    2.0641    0.7745    0.8168 H   0  0  0  0  0  0
    1.5831   -1.5442    1.3917 H   0  0  0  0  0  0
    1.4877   -1.9975   -0.3117 H   0  0  0  0  0  0
    5.7614   -0.8209    0.0360 H   0  0  0  0  0  0
    8.1983   -1.1199   -0.0908 H   0  0  0  0  0  0
    9.2135   -3.3240    0.3139 H   0  0  0  0  0  0
    7.7988   -5.2728    0.8542 H   0  0  0  0  0  0
    5.5544   -6.2455    1.2512 H   0  0  0  0  0  0
    3.1090   -5.9705    1.3943 H   0  0  0  0  0  0
    2.0702   -3.8175    1.0046 H   0  0  0  0  0  0
    2.0241    1.6340   -1.5509 H   0  0  0  0  0  0
    3.2981    0.4011   -1.3970 H   0  0  0  0  0  0
    1.7519   -1.1909   -2.3509 H   0  0  0  0  0  0
    1.9106    1.2800   -3.9308 H   0  0  0  0  0  0
    1.2672   -0.1622   -5.9203 H   0  0  0  0  0  0
    0.0038   -0.1322   -4.7009 H   0  0  0  0  0  0
    1.0583   -1.5378   -4.8429 H   0  0  0  0  0  0
    3.7786   -0.0081   -5.1660 H   0  0  0  0  0  0
    3.6011   -1.3121   -3.9993 H   0  0  0  0  0  0
    4.1665    0.2760   -3.4834 H   0  0  0  0  0  0
   -2.2384    1.1715   -0.8198 H   0  0  0  0  0  0
   -2.1926    0.4341    0.7618 H   0  0  0  0  0  0
   -2.3943    3.4454    0.2622 H   0  0  0  0  0  0
   -2.7233    1.8879    2.8812 H   0  0  0  0  0  0
   -3.0135    3.6121    2.6771 H   0  0  0  0  0  0
   -1.3921    2.9725    2.4967 H   0  0  0  0  0  0
   -4.6168    1.4977    1.0241 H   0  0  0  0  0  0
   -4.4207    2.2813   -0.5411 H   0  0  0  0  0  0
   -4.7765    3.2459    0.8826 H   0  0  0  0  0  0
    0.5752   -0.0640   -2.4165 H   0  0  0  0  0  0
  1  2  1  0  0  0
  1 20  1  0  0  0
  2  3  1  0  0  0
  2 15  1  0  0  0
  2 26  1  0  0  0
  3  4  1  0  0  0
  3 27  1  0  0  0
  3 28  1  0  0  0
  4  5  1  0  0  0
  5  6  2  0  0  0
  5 14  1  0  0  0
  6  7  1  0  0  0
  6 11  1  0  0  0
  7  8  2  0  0  0
  7 29  1  0  0  0
  8  9  1  0  0  0
  8 30  1  0  0  0
  9 10  2  0  0  0
  9 31  1  0  0  0
 10 11  1  0  0  0
 10 32  1  0  0  0
 11 12  2  0  0  0
 12 13  1  0  0  0
 12 33  1  0  0  0
 13 14  2  0  0  0
 13 34  1  0  0  0
 14 35  1  0  0  0
 15 16  1  0  0  0
 15 36  1  0  0  0
 15 37  1  0  0  0
 16 17  1  0  0  0
 16 38  1  0  0  0
 16 55  1  0  0  0
 17 18  1  0  0  0
 17 19  1  0  0  0
 17 39  1  0  0  0
 18 40  1  0  0  0
 18 41  1  0  0  0
 18 42  1  0  0  0
 19 43  1  0  0  0
 19 44  1  0  0  0
 19 45  1  0  0  0
 20 21  1  0  0  0
 20 22  2  0  0  0
 21 23  1  0  0  0
 21 46  1  0  0  0
 21 47  1  0  0  0
 23 24  1  0  0  0
 23 25  1  0  0  0
 23 48  1  0  0  0
 24 49  1  0  0  0
 24 50  1  0  0  0
 24 51  1  0  0  0
 25 52  1  0  0  0
 25 53  1  0  0  0
 25 54  1  0  0  0
M  CHG  1  16   1
M  END
> <s_m_entry_id>
128

> <s_m_entry_name>
entry

> <i_lp_mmshare_version>
47013

> <i_f3d_flags>
0

> <s_epik_input>
W0NIM11bQ0hdKFtDSDNdKVtDSDJdQyg9TylPW0NASF0oW0NIMl1bTkhdW0NIXShbQ0gzXSlbQ0gzXSlbQ0gyXU9jMVtjSF1bY0hdW2NIXWMoYzEyKVtjSF1bY0hdW2NIXVtjSF0y

> <s_epik_cmdline>
J2VwaWtfcHl0aG9uJywgJy1waCcsICc3LjQnLCAnLXRuJywgJzgnLCAnLW1hJywgJzIwMCcsICctaW1hZScsICc8aW5maWxlLm1hZT4nLCAnLW9tYWUnLCAnPG91dGZpbGUubWFlPic=

> <r_epik_Ionization_Penalty>
  0.0216

> <r_epik_Ionization_Penalty_Charging>
  0.0216

> <r_epik_Ionization_Penalty_Neutral>
  0.0000

> <r_epik_State_Penalty>
  0.0173

> <r_epik_Charging_Adjusted_Penalty>
0.0388922275190613

> <i_epik_Tot_Q>
1

> <i_epik_Tot_abs_Q>
1

> <s_lp_Force_Field>
OPLS3e

> <r_lp_Energy>
26.529

> <b_lp_Chiralities_Consistent>
1

> <s_lp_Variant>
289-1

> <s_m_job_name>
ligprep_5

> <s_m_Source_Path>
/home/andre/Documents/projects/Esterase/data/FINAL_STUFF/Compounds/MAE_external

> <s_m_Source_File>
128.mae

> <i_m_Source_File_Index>
1

> <s_epik_Chemistry_Notes>
This compound has an ester and may undergo hydrolysis at high or low pH.

$$$$
