13
                    3D
 Schrodinger Suite 2021-1.
 43 46  0  0  1  0            999 V2000
   -0.7423    1.2081   -0.1494 C   0  0  0  0  0  0
   -0.0684   -0.0170   -0.1880 C   0  0  0  0  0  0
   -0.7961   -1.2062   -0.1286 C   0  0  0  0  0  0
   -2.1851   -1.1672   -0.0521 C   0  0  0  0  0  0
   -2.8368    0.0665   -0.0274 C   0  0  0  0  0  0
   -2.1446    1.2852   -0.0750 C   0  0  0  0  0  0
   -4.2390    0.0988    0.0492 N   0  0  0  0  0  0
   -5.0100    1.1655    0.0801 C   0  0  0  0  0  0
   -4.4862    2.4844    0.0384 C   0  0  0  0  0  0
   -2.9094    2.6471   -0.0467 C   0  0  0  0  0  0
   -6.3815    0.9489    0.1557 C   0  0  0  0  0  0
   -7.2683    1.9696    0.1909 C   0  0  0  0  0  0
   -6.8716    3.3835    0.1537 C   0  0  0  0  0  0
   -5.3927    3.5302    0.0751 C   0  0  0  0  0  0
    1.3064   -0.0507   -0.2435 O   0  0  0  0  0  0
    1.9391   -0.0211   -1.4582 C   0  0  0  0  0  0
    1.3481    0.0203   -2.5429 O   0  0  0  0  0  0
    3.4362   -0.0440   -1.3419 C   0  0  0  0  0  0
   -7.6734    4.3184    0.1849 O   0  0  0  0  0  0
   -8.9973    1.6062    0.2857 Cl  0  0  0  0  0  0
   -4.8934    5.2343    0.0315 Cl  0  0  0  0  0  0
   -2.4276    3.3862    1.2325 C   0  0  0  0  0  0
   -2.5666    3.3615   -1.3836 C   0  0  0  0  0  0
    4.0841   -0.0866   -0.0958 C   0  0  0  0  0  0
    5.4745   -0.1047   -0.0234 C   0  0  0  0  0  0
    6.2284   -0.0804   -1.1930 C   0  0  0  0  0  0
    5.6034   -0.0384   -2.4358 C   0  0  0  0  0  0
    4.2132   -0.0202   -2.5099 C   0  0  0  0  0  0
   -0.1581    2.1160   -0.1842 H   0  0  0  0  0  0
   -0.2842   -2.1574   -0.1469 H   0  0  0  0  0  0
   -2.7441   -2.0914   -0.0129 H   0  0  0  0  0  0
   -6.7505   -0.0680    0.1867 H   0  0  0  0  0  0
   -2.7020    2.8374    2.1348 H   0  0  0  0  0  0
   -2.8275    4.3906    1.3355 H   0  0  0  0  0  0
   -1.3442    3.5066    1.2477 H   0  0  0  0  0  0
   -2.9434    2.8015   -2.2408 H   0  0  0  0  0  0
   -1.4908    3.4710   -1.5218 H   0  0  0  0  0  0
   -2.9675    4.3679   -1.4582 H   0  0  0  0  0  0
    3.5262   -0.1057    0.8296 H   0  0  0  0  0  0
    5.9665   -0.1370    0.9377 H   0  0  0  0  0  0
    7.3070   -0.0938   -1.1357 H   0  0  0  0  0  0
    6.1945   -0.0194   -3.3395 H   0  0  0  0  0  0
    3.7503    0.0130   -3.4863 H   0  0  0  0  0  0
  1  2  2  0  0  0
  1  6  1  0  0  0
  1 29  1  0  0  0
  2  3  1  0  0  0
  2 15  1  0  0  0
  3  4  2  0  0  0
  3 30  1  0  0  0
  4  5  1  0  0  0
  4 31  1  0  0  0
  5  6  2  0  0  0
  5  7  1  0  0  0
  6 10  1  0  0  0
  7  8  2  0  0  0
  8 11  1  0  0  0
  8  9  1  0  0  0
  9 10  1  0  0  0
  9 14  2  0  0  0
 10 22  1  0  0  0
 10 23  1  0  0  0
 11 12  2  0  0  0
 11 32  1  0  0  0
 12 13  1  0  0  0
 12 20  1  0  0  0
 13 14  1  0  0  0
 13 19  2  0  0  0
 14 21  1  0  0  0
 15 16  1  0  0  0
 16 17  2  0  0  0
 16 18  1  0  0  0
 18 24  1  0  0  0
 18 28  2  0  0  0
 22 33  1  0  0  0
 22 34  1  0  0  0
 22 35  1  0  0  0
 23 36  1  0  0  0
 23 37  1  0  0  0
 23 38  1  0  0  0
 24 25  2  0  0  0
 24 39  1  0  0  0
 25 26  1  0  0  0
 25 40  1  0  0  0
 26 27  2  0  0  0
 26 41  1  0  0  0
 27 28  1  0  0  0
 27 42  1  0  0  0
 28 43  1  0  0  0
M  END
> <s_m_entry_id>
13

> <s_m_entry_name>
CE1_M51.1

> <i_lp_mmshare_version>
47013

> <i_f3d_flags>
0

> <s_epik_input>
W2NIXTFbY0hdW2NIXVtjSF1bY0hdYzFDKD1PKU9jKFtjSF1bY0hdMilbY0hdYyhjMjMpQyhbQ0gzXSkoW0NIM10pQz00Qyg9TjMpW0NIXT1DKENsKUMoPU8pQzRDbA==

> <s_epik_cmdline>
J2VwaWtfcHl0aG9uJywgJy1waCcsICc3LjAnLCAnLXRuJywgJzgnLCAnLW1hJywgJzIwMCcsICctaW1hZScsICc8aW5maWxlLm1hZT4nLCAnLW9tYWUnLCAnPG91dGZpbGUubWFlPic=

> <r_epik_Ionization_Penalty>
  0.0000

> <r_epik_Ionization_Penalty_Charging>
  0.0000

> <r_epik_Ionization_Penalty_Neutral>
  0.0000

> <r_epik_State_Penalty>
  0.0000

> <r_epik_Charging_Adjusted_Penalty>
6.58829956334665e-06

> <i_epik_Tot_Q>
1

> <i_epik_Tot_abs_Q>
1

> <s_lp_Force_Field>
OPLS3e

> <r_lp_Energy>
62.676701

> <b_lp_Chiralities_Consistent>
1

> <s_lp_Variant>
CE1_M51-1

> <s_m_job_name>
ligprep_43

> <s_m_Source_Path>
/home/andre/Documents/projects/Esterase/data/FINAL_STUFF/Compounds/MAE_external

> <s_m_Source_File>
13.mae

> <i_m_Source_File_Index>
1

> <r_lp_tautomer_probability>
1

> <s_epik_Chemistry_Notes>
This compound has an imine and may undergo hydrolysis.

$$$$
