131
                    3D
 Schrodinger Suite 2021-1.
 41 42  0  0  1  0            999 V2000
   -1.8831   -4.1147    4.8676 C   0  0  0  0  0  0
   -2.3480   -4.8066    5.9828 C   0  0  0  0  0  0
   -2.8864   -4.1024    7.0555 C   0  0  0  0  0  0
   -2.9645   -2.7134    7.0191 C   0  0  0  0  0  0
   -2.4976   -2.0255    5.9024 C   0  0  0  0  0  0
   -1.9469   -2.7147    4.8123 C   0  0  0  0  0  0
   -1.4438   -1.9816    3.6096 C   0  0  0  0  0  0
   -1.6799   -2.4965    2.3260 C   0  0  0  0  0  0
   -1.2242   -1.8367    1.1859 C   0  0  0  0  0  0
   -0.5105   -0.6422    1.2978 C   0  0  0  0  0  0
   -0.2751   -0.1130    2.5723 C   0  0  0  0  0  0
   -0.7282   -0.7746    3.7140 C   0  0  0  0  0  0
   -0.0236    0.0678    0.0300 C   0  0  1  0  0  0
   -0.4369   -0.2389    4.9226 F   0  0  0  0  0  0
   -0.7396    1.4205   -0.1808 C   0  0  0  0  0  0
    1.5156    0.1842    0.0579 C   0  0  0  0  0  0
    2.1195   -1.0160   -0.0900 O   0  0  0  0  0  0
    2.0922    1.2668    0.1926 O   0  0  0  0  0  0
    3.5371   -1.1217   -0.0815 C   0  0  0  0  0  0
    3.9377   -2.6061   -0.1196 C   0  0  0  0  0  0
    5.4567   -2.8437   -0.0687 C   0  0  0  0  0  0
    6.1010   -2.2469   -1.1755 O   0  0  0  0  0  0
   -1.4602   -4.6764    4.0474 H   0  0  0  0  0  0
   -2.2892   -5.8845    6.0156 H   0  0  0  0  0  0
   -3.2475   -4.6375    7.9215 H   0  0  0  0  0  0
   -3.3879   -2.1711    7.8517 H   0  0  0  0  0  0
   -2.5804   -0.9488    5.8867 H   0  0  0  0  0  0
   -2.2339   -3.4155    2.2016 H   0  0  0  0  0  0
   -1.4272   -2.2612    0.2136 H   0  0  0  0  0  0
    0.2729    0.8118    2.6806 H   0  0  0  0  0  0
   -0.2654   -0.5650   -0.8252 H   0  0  0  0  0  0
   -0.5572    2.1137    0.6418 H   0  0  0  0  0  0
   -1.8184    1.2810   -0.2580 H   0  0  0  0  0  0
   -0.4116    1.9059   -1.1010 H   0  0  0  0  0  0
    3.9475   -0.5943   -0.9441 H   0  0  0  0  0  0
    3.9414   -0.6520    0.8171 H   0  0  0  0  0  0
    3.4799   -3.1190    0.7275 H   0  0  0  0  0  0
    3.5263   -3.0795   -1.0123 H   0  0  0  0  0  0
    5.8780   -2.3799    0.8241 H   0  0  0  0  0  0
    5.6899   -3.9082   -0.0309 H   0  0  0  0  0  0
    7.0446   -2.4093   -1.1042 H   0  0  0  0  0  0
  1  2  2  0  0  0
  1  6  1  0  0  0
  1 23  1  0  0  0
  2  3  1  0  0  0
  2 24  1  0  0  0
  3  4  2  0  0  0
  3 25  1  0  0  0
  4  5  1  0  0  0
  4 26  1  0  0  0
  5  6  2  0  0  0
  5 27  1  0  0  0
  6  7  1  0  0  0
  7  8  2  0  0  0
  7 12  1  0  0  0
  8  9  1  0  0  0
  8 28  1  0  0  0
  9 10  2  0  0  0
  9 29  1  0  0  0
 10 11  1  0  0  0
 10 13  1  0  0  0
 11 12  2  0  0  0
 11 30  1  0  0  0
 12 14  1  0  0  0
 13 15  1  0  0  0
 13 16  1  0  0  0
 13 31  1  0  0  0
 15 32  1  0  0  0
 15 33  1  0  0  0
 15 34  1  0  0  0
 16 17  1  0  0  0
 16 18  2  0  0  0
 17 19  1  0  0  0
 19 20  1  0  0  0
 19 35  1  0  0  0
 19 36  1  0  0  0
 20 21  1  0  0  0
 20 37  1  0  0  0
 20 38  1  0  0  0
 21 22  1  0  0  0
 21 39  1  0  0  0
 21 40  1  0  0  0
 22 41  1  0  0  0
M  END
> <s_m_entry_id>
131

> <s_m_entry_name>
entry

> <i_lp_mmshare_version>
47013

> <i_f3d_flags>
0

> <s_epik_input>
W2NIXTFbY0hdW2NIXVtjSF1bY0hdYzEtYzJbY0hdW2NIXWMoW2NIXWMyRilbQ0BASF0oW0NIM10pQyg9TylPW0NIMl1bQ0gyXVtDSDJdW09IXQ==

> <s_epik_cmdline>
J2VwaWtfcHl0aG9uJywgJy1waCcsICc3LjQnLCAnLXRuJywgJzgnLCAnLW1hJywgJzIwMCcsICctaW1hZScsICc8aW5maWxlLm1hZT4nLCAnLW9tYWUnLCAnPG91dGZpbGUubWFlPic=

> <r_epik_Ionization_Penalty>
  0.0000

> <r_epik_Ionization_Penalty_Charging>
  0.0000

> <r_epik_Ionization_Penalty_Neutral>
  0.0000

> <r_epik_State_Penalty>
  0.0000

> <r_epik_Charging_Adjusted_Penalty>
0

> <i_epik_Tot_Q>
0

> <i_epik_Tot_abs_Q>
0

> <s_lp_Force_Field>
OPLS3e

> <r_lp_Energy>
32.226184

> <b_lp_Chiralities_Consistent>
1

> <s_lp_Variant>
292-1

> <s_m_job_name>
ligprep_7

> <s_m_Source_Path>
/home/andre/Documents/projects/Esterase/data/FINAL_STUFF/Compounds/MAE_external

> <s_m_Source_File>
131.mae

> <i_m_Source_File_Index>
1

> <r_lp_tautomer_probability>
1

> <s_epik_Chemistry_Notes>
This compound has an ester and may undergo hydrolysis at high or low pH.

$$$$
