134
                    3D
 Schrodinger Suite 2021-1.
 62 64  0  0  1  0            999 V2000
   -1.1111    4.3666    2.7697 C   0  0  0  0  0  0
   -1.0500    3.6289    1.4386 C   0  0  0  0  0  0
   -1.3516    4.2922    0.2461 C   0  0  0  0  0  0
   -1.7943    5.7003   -0.0193 C   0  0  0  0  0  0
   -1.9488    5.7771   -1.4253 O   0  0  0  0  0  0
   -1.6429    4.6061   -2.0276 C   0  0  0  0  0  0
   -1.7018    4.4546   -3.2462 O   0  0  0  0  0  0
   -1.2578    3.6436   -0.9692 C   0  0  0  0  0  0
   -0.8493    2.3093   -1.0383 C   0  0  0  0  0  0
   -0.5392    1.6182    0.1461 C   0  0  0  0  0  0
   -0.6564    2.2781    1.3857 C   0  0  0  0  0  0
   -0.3450    1.6033    2.5435 O   0  0  0  0  0  0
   -1.4687    1.0705    3.2352 C   0  0  0  0  0  0
   -0.0647    0.1639    0.0911 C   0  0  0  0  0  0
    1.4522    0.0625    0.0362 C   0  0  0  0  0  0
    2.2319   -0.3329   -0.9947 C   0  0  0  0  0  0
    1.7143   -0.7776   -2.3582 C   0  0  0  0  0  0
    3.7490   -0.3687   -0.8551 C   0  0  0  0  0  0
    4.4595    0.7628   -1.6283 C   0  0  0  0  0  0
    5.9839    0.7919   -1.4659 C   0  0  0  0  0  0
    6.6107   -0.1197   -0.9199 O   0  0  0  0  0  0
    6.5146    1.9220   -1.9753 O   0  0  0  0  0  0
    7.9157    2.1561   -1.9235 C   0  0  0  0  0  0
    8.2055    3.5638   -2.4760 C   0  0  0  0  0  0
    9.6390    3.8530   -2.5844 N   0  0  0  0  0  0
   10.3229    3.8713   -1.2833 C   0  0  0  0  0  0
   11.8083    4.2701   -1.4202 C   0  0  0  0  0  0
   11.9405    5.5012   -2.1238 O   0  0  0  0  0  0
   11.3431    5.4763   -3.4159 C   0  0  0  0  0  0
    9.8476    5.1073   -3.3181 C   0  0  0  0  0  0
   -0.7468    1.6988   -2.2649 O   0  0  0  0  0  0
   -0.8794    5.4244    2.6416 H   0  0  0  0  0  0
   -0.3755    3.9796    3.4754 H   0  0  0  0  0  0
   -2.1037    4.2814    3.2122 H   0  0  0  0  0  0
   -2.7399    5.9338    0.4710 H   0  0  0  0  0  0
   -1.0578    6.4332    0.3116 H   0  0  0  0  0  0
   -1.1236    0.5044    4.1003 H   0  0  0  0  0  0
   -2.0480    0.3933    2.6054 H   0  0  0  0  0  0
   -2.1333    1.8550    3.5987 H   0  0  0  0  0  0
   -0.3997   -0.3784    0.9750 H   0  0  0  0  0  0
   -0.5449   -0.3573   -0.7341 H   0  0  0  0  0  0
    1.9371    0.3532    0.9576 H   0  0  0  0  0  0
    2.0661   -1.7848   -2.5837 H   0  0  0  0  0  0
    2.0777   -0.1059   -3.1362 H   0  0  0  0  0  0
    0.6300   -0.7920   -2.4351 H   0  0  0  0  0  0
    4.0175   -0.3071    0.2017 H   0  0  0  0  0  0
    4.1046   -1.3440   -1.1921 H   0  0  0  0  0  0
    4.2398    0.6753   -2.6923 H   0  0  0  0  0  0
    4.0632    1.7255   -1.3032 H   0  0  0  0  0  0
    8.2619    2.0693   -0.8926 H   0  0  0  0  0  0
    8.4368    1.4013   -2.5149 H   0  0  0  0  0  0
    7.7585    3.6350   -3.4692 H   0  0  0  0  0  0
    7.7162    4.3178   -1.8566 H   0  0  0  0  0  0
    9.8145    4.5665   -0.6128 H   0  0  0  0  0  0
   10.2536    2.8919   -0.8102 H   0  0  0  0  0  0
   12.2679    4.3687   -0.4367 H   0  0  0  0  0  0
   12.3484    3.4832   -1.9502 H   0  0  0  0  0  0
   11.4638    6.4530   -3.8847 H   0  0  0  0  0  0
   11.8581    4.7499   -4.0474 H   0  0  0  0  0  0
    9.4233    5.0167   -4.3192 H   0  0  0  0  0  0
    9.2989    5.9157   -2.8311 H   0  0  0  0  0  0
   -0.9796    2.2829   -2.9910 H   0  0  0  0  0  0
  1  2  1  0  0  0
  1 32  1  0  0  0
  1 33  1  0  0  0
  1 34  1  0  0  0
  2 11  2  0  0  0
  2  3  1  0  0  0
  3  8  2  0  0  0
  3  4  1  0  0  0
  4  5  1  0  0  0
  4 35  1  0  0  0
  4 36  1  0  0  0
  5  6  1  0  0  0
  6  7  2  0  0  0
  6  8  1  0  0  0
  8  9  1  0  0  0
  9 10  2  0  0  0
  9 31  1  0  0  0
 10 11  1  0  0  0
 10 14  1  0  0  0
 11 12  1  0  0  0
 12 13  1  0  0  0
 13 37  1  0  0  0
 13 38  1  0  0  0
 13 39  1  0  0  0
 14 15  1  0  0  0
 14 40  1  0  0  0
 14 41  1  0  0  0
 15 16  2  0  0  0
 15 42  1  0  0  0
 16 17  1  0  0  0
 16 18  1  0  0  0
 17 43  1  0  0  0
 17 44  1  0  0  0
 17 45  1  0  0  0
 18 19  1  0  0  0
 18 46  1  0  0  0
 18 47  1  0  0  0
 19 20  1  0  0  0
 19 48  1  0  0  0
 19 49  1  0  0  0
 20 21  2  0  0  0
 20 22  1  0  0  0
 22 23  1  0  0  0
 23 24  1  0  0  0
 23 50  1  0  0  0
 23 51  1  0  0  0
 24 25  1  0  0  0
 24 52  1  0  0  0
 24 53  1  0  0  0
 25 30  1  0  0  0
 25 26  1  0  0  0
 26 27  1  0  0  0
 26 54  1  0  0  0
 26 55  1  0  0  0
 27 28  1  0  0  0
 27 56  1  0  0  0
 27 57  1  0  0  0
 28 29  1  0  0  0
 29 30  1  0  0  0
 29 58  1  0  0  0
 29 59  1  0  0  0
 30 60  1  0  0  0
 30 61  1  0  0  0
 31 62  1  0  0  0
M  END
> <s_m_entry_id>
134

> <s_m_entry_name>
entry

> <i_lp_mmshare_version>
47013

> <i_f3d_flags>
0

> <s_epik_input>
W0NIMl0xT0MoPU8pYyhjMTIpYyhbT0hdKWMoYyhjMltDSDNdKU9bQ0gzXSlbQ0gyXS9bQ0hdPUMoXFtDSDNdKVtDSDJdW0NIMl1DKD1PKU9bQ0gyXVtDSDJdTjNbQ0gyXVtDSDJdT1tDSDJdW0NIMl0z

> <s_epik_cmdline>
J2VwaWtfcHl0aG9uJywgJy1waCcsICc3LjQnLCAnLXRuJywgJzgnLCAnLW1hJywgJzIwMCcsICctaW1hZScsICc8aW5maWxlLm1hZT4nLCAnLW9tYWUnLCAnPG91dGZpbGUubWFlPic=

> <r_epik_Ionization_Penalty>
  0.1205

> <r_epik_Ionization_Penalty_Charging>
  0.0000

> <r_epik_Ionization_Penalty_Neutral>
  0.1205

> <r_epik_State_Penalty>
  0.1073

> <r_epik_Charging_Adjusted_Penalty>
0.107297880141512

> <i_epik_Tot_Q>
0

> <i_epik_Tot_abs_Q>
0

> <s_lp_Force_Field>
OPLS3e

> <r_lp_Energy>
18.213255

> <b_lp_Chiralities_Consistent>
1

> <s_lp_Variant>
295-1

> <s_m_job_name>
ligprep_9

> <s_m_Source_Path>
/home/andre/Documents/projects/Esterase/data/FINAL_STUFF/Compounds/MAE_external

> <s_m_Source_File>
134.mae

> <i_m_Source_File_Index>
1

> <s_epik_Chemistry_Notes>
This compound has an ester and may undergo hydrolysis at high or low pH.

$$$$
