136
                    3D
 Schrodinger Suite 2021-1.
 43 45  0  0  1  0            999 V2000
    0.9412    0.2850   -8.4909 C   0  0  0  0  0  0
    0.8745    0.9606   -7.1268 C   0  0  0  0  0  0
    1.1560    2.1537   -7.0105 O   0  0  0  0  0  0
    0.4898    0.0776   -6.1568 O   0  0  0  0  0  0
    0.3027    0.3939   -4.8236 C   0  0  0  0  0  0
   -0.0469   -0.5402   -3.8572 C   0  0  0  0  0  0
   -0.1735    0.0131   -2.5766 C   0  0  0  0  0  0
    0.0556    1.3898   -2.5681 C   0  0  0  0  0  0
    0.4641    1.9989   -4.1390 S   0  0  0  0  0  0
    0.0125    2.2282   -1.3009 C   0  0  0  0  0  0
   -0.5856    1.3737   -0.1446 C   0  0  0  0  0  0
   -0.0612   -0.0094   -0.0898 N   0  0  1  0  0  0
   -0.5592   -0.7196   -1.2931 C   0  0  0  0  0  0
    1.4144   -0.0857    0.1063 C   0  0  1  0  0  0
    1.9286    0.6342    1.3740 C   0  0  0  0  0  0
    1.1492    0.6765    2.5429 C   0  0  0  0  0  0
    1.6159    1.3096    3.6936 C   0  0  0  0  0  0
    2.8726    1.9085    3.6966 C   0  0  0  0  0  0
    3.6622    1.8714    2.5497 C   0  0  0  0  0  0
    3.2017    1.2378    1.3938 C   0  0  0  0  0  0
    4.2333    1.2355    0.0033 Cl  0  0  0  0  0  0
    1.9619   -1.5319    0.1747 C   0  0  0  0  0  0
    2.8863   -1.8923   -0.5571 O   0  0  0  0  0  0
    1.3283   -2.3055    1.0888 O   0  0  0  0  0  0
    1.7078   -3.6608    1.2737 C   0  0  0  0  0  0
   -0.0312   -0.1304   -8.7557 H   0  0  0  0  0  0
    1.6730   -0.5228   -8.4776 H   0  0  0  0  0  0
    1.2312    0.9984   -9.2628 H   0  0  0  0  0  0
   -0.1994   -1.5880   -4.0702 H   0  0  0  0  0  0
    1.0122    2.5569   -1.0146 H   0  0  0  0  0  0
   -0.5596    3.1493   -1.4123 H   0  0  0  0  0  0
   -0.3953    1.8965    0.7919 H   0  0  0  0  0  0
   -1.6742    1.3417   -0.2176 H   0  0  0  0  0  0
   -1.6468   -0.7946   -1.2570 H   0  0  0  0  0  0
   -0.1796   -1.7410   -1.2963 H   0  0  0  0  0  0
    1.8578    0.4054   -0.7592 H   0  0  0  0  0  0
    0.1763    0.2075    2.5666 H   0  0  0  0  0  0
    1.0041    1.3323    4.5834 H   0  0  0  0  0  0
    3.2362    2.3989    4.5875 H   0  0  0  0  0  0
    4.6366    2.3378    2.5597 H   0  0  0  0  0  0
    1.0966   -4.1120    2.0552 H   0  0  0  0  0  0
    2.7540   -3.7377    1.5737 H   0  0  0  0  0  0
    1.5662   -4.2352    0.3572 H   0  0  0  0  0  0
  1  2  1  0  0  0
  1 26  1  0  0  0
  1 27  1  0  0  0
  1 28  1  0  0  0
  2  3  2  0  0  0
  2  4  1  0  0  0
  4  5  1  0  0  0
  5  9  1  0  0  0
  5  6  2  0  0  0
  6  7  1  0  0  0
  6 29  1  0  0  0
  7 13  1  0  0  0
  7  8  2  0  0  0
  8  9  1  0  0  0
  8 10  1  0  0  0
 10 11  1  0  0  0
 10 30  1  0  0  0
 10 31  1  0  0  0
 11 12  1  0  0  0
 11 32  1  0  0  0
 11 33  1  0  0  0
 12 13  1  0  0  0
 12 14  1  0  0  0
 13 34  1  0  0  0
 13 35  1  0  0  0
 14 15  1  0  0  0
 14 22  1  0  0  0
 14 36  1  0  0  0
 15 20  1  0  0  0
 15 16  2  0  0  0
 16 17  1  0  0  0
 16 37  1  0  0  0
 17 18  2  0  0  0
 17 38  1  0  0  0
 18 19  1  0  0  0
 18 39  1  0  0  0
 19 20  2  0  0  0
 19 40  1  0  0  0
 20 21  1  0  0  0
 22 23  2  0  0  0
 22 24  1  0  0  0
 24 25  1  0  0  0
 25 41  1  0  0  0
 25 42  1  0  0  0
 25 43  1  0  0  0
M  END
> <s_m_entry_id>
136

> <s_m_entry_name>
entry

> <i_lp_mmshare_version>
47013

> <i_f3d_flags>
0

> <s_epik_input>
W0NIM11DKD1PKU9jKFtjSF0xKXNjKGMxMilbQ0gyXVtDSDJdTihbQ0gyXTIpW0NASF0oQyg9TylPW0NIM10pYzNbY0hdW2NIXVtjSF1bY0hdYzNDbA==

> <s_epik_cmdline>
J2VwaWtfcHl0aG9uJywgJy1waCcsICc3LjQnLCAnLXRuJywgJzgnLCAnLW1hJywgJzIwMCcsICctaW1hZScsICc8aW5maWxlLm1hZT4nLCAnLW9tYWUnLCAnPG91dGZpbGUubWFlPic=

> <r_epik_Ionization_Penalty>
  0.0111

> <r_epik_Ionization_Penalty_Charging>
  0.0000

> <r_epik_Ionization_Penalty_Neutral>
  0.0111

> <r_epik_State_Penalty>
  0.0085

> <r_epik_Charging_Adjusted_Penalty>
0.0085322968806903

> <i_epik_Tot_Q>
0

> <i_epik_Tot_abs_Q>
0

> <s_lp_Force_Field>
OPLS3e

> <r_lp_Energy>
35.697837

> <b_lp_Chiralities_Consistent>
1

> <s_lp_Variant>
297-1

> <s_m_job_name>
ligprep_11

> <s_m_Source_Path>
/home/andre/Documents/projects/Esterase/data/FINAL_STUFF/Compounds/MAE_external

> <s_m_Source_File>
136.mae

> <i_m_Source_File_Index>
1

> <s_epik_Chemistry_Notes>
This compound has an ester and may undergo hydrolysis at high or low pH.

$$$$
