144
                    3D
 Schrodinger Suite 2021-1.
 70 74  0  0  1  0            999 V2000
   -3.8172    7.2936    0.4509 C   0  0  0  0  0  0
   -3.2252    6.0389    0.5612 C   0  0  0  0  0  0
   -2.4421    5.5020   -0.4733 C   0  0  0  0  0  0
   -2.3159    6.2420   -1.6785 C   0  0  0  0  0  0
   -2.9036    7.5153   -1.7627 C   0  0  0  0  0  0
   -3.6460    8.0387   -0.7087 C   0  0  0  0  0  0
   -1.7941    4.1705   -0.2494 C   0  0  0  0  0  0
   -2.5120    3.1182    0.3328 C   0  0  0  0  0  0
   -1.9204    1.8733    0.5275 C   0  0  0  0  0  0
   -0.5934    1.6583    0.1536 C   0  0  0  0  0  0
    0.1364    2.7063   -0.4175 C   0  0  0  0  0  0
   -0.4591    3.9487   -0.6100 C   0  0  0  0  0  0
   -1.6261    5.7413   -2.9225 C   0  0  0  0  0  0
   -0.8115    6.4841   -3.6413 N   0  0  0  0  0  0
   -0.4035    5.6789   -4.6786 N   0  0  0  0  0  0
   -1.0257    4.4671   -4.5351 N   0  0  0  0  0  0
   -1.8145    4.5342   -3.4115 N   0  5  0  0  0  0
    0.0077    0.2668    0.3571 C   0  0  0  0  0  0
    1.4781    0.1918    0.3341 N   0  0  0  0  0  0
    2.3924    0.3623    1.3641 C   0  0  0  0  0  0
    3.6690    0.1960    0.7951 C   0  0  0  0  0  0
    3.5354   -0.1049   -0.4886 N   0  0  0  0  0  0
    2.2564   -0.0647   -0.7749 C   0  0  0  0  0  0
    1.9397    0.6508    2.7337 C   0  0  0  0  0  0
    2.7838    0.0998    3.6247 O   0  0  0  0  0  0
    0.9106    1.2661    3.0228 O   0  0  0  0  0  0
    2.5813    0.2390    5.0222 C   0  0  0  0  0  0
    3.7233   -0.4126    5.7699 C   0  0  0  0  0  0
    3.8638   -1.7329    5.6013 O   0  0  0  0  0  0
    4.9356   -2.1111    6.3314 C   0  0  0  0  0  0
    5.4391   -1.0195    6.9500 O   0  0  0  0  0  0
    4.6770    0.0194    6.5893 C   0  0  0  0  0  0
    5.0695    1.3646    7.1589 C   0  0  0  0  0  0
    5.3775   -3.2550    6.4192 O   0  0  0  0  0  0
    5.0818    0.2733    1.4082 C   0  0  0  0  0  0
    5.1110    1.2632    2.4205 O   0  0  0  0  0  0
    5.4766   -1.0743    2.0465 C   0  0  0  0  0  0
    6.1562    0.7247    0.3888 C   0  0  0  0  0  0
    1.6790   -0.3095   -2.1677 C   0  0  0  0  0  0
    2.6789   -0.1463   -3.3335 C   0  0  0  0  0  0
    3.1817    1.2939   -3.5262 C   0  0  0  0  0  0
   -4.4000    7.6911    1.2687 H   0  0  0  0  0  0
   -3.3535    5.4934    1.4849 H   0  0  0  0  0  0
   -2.8136    8.0999   -2.6671 H   0  0  0  0  0  0
   -4.1000    9.0145   -0.7982 H   0  0  0  0  0  0
   -3.5441    3.2557    0.6206 H   0  0  0  0  0  0
   -2.5001    1.0738    0.9655 H   0  0  0  0  0  0
    1.1634    2.5718   -0.7224 H   0  0  0  0  0  0
    0.1271    4.7442   -1.0465 H   0  0  0  0  0  0
   -0.3414   -0.1585    1.2983 H   0  0  0  0  0  0
   -0.3856   -0.3948   -0.4151 H   0  0  0  0  0  0
    2.5297    1.2952    5.2906 H   0  0  0  0  0  0
    1.6388   -0.2234    5.3190 H   0  0  0  0  0  0
    4.4022    2.1467    6.7964 H   0  0  0  0  0  0
    6.0882    1.6175    6.8636 H   0  0  0  0  0  0
    5.0189    1.3444    8.2477 H   0  0  0  0  0  0
    5.9958    1.2913    2.7914 H   0  0  0  0  0  0
    5.5134   -1.8665    1.2978 H   0  0  0  0  0  0
    4.7688   -1.3894    2.8130 H   0  0  0  0  0  0
    6.4602   -1.0258    2.5158 H   0  0  0  0  0  0
    6.2677    0.0031   -0.4216 H   0  0  0  0  0  0
    7.1374    0.8323    0.8542 H   0  0  0  0  0  0
    5.9018    1.6847   -0.0640 H   0  0  0  0  0  0
    1.2513   -1.3118   -2.2089 H   0  0  0  0  0  0
    0.8443    0.3680   -2.3532 H   0  0  0  0  0  0
    3.5270   -0.8186   -3.1959 H   0  0  0  0  0  0
    2.1949   -0.4681   -4.2565 H   0  0  0  0  0  0
    3.8551    1.3581   -4.3812 H   0  0  0  0  0  0
    3.7270    1.6525   -2.6532 H   0  0  0  0  0  0
    2.3533    1.9803   -3.7062 H   0  0  0  0  0  0
  1  2  2  0  0  0
  1  6  1  0  0  0
  1 42  1  0  0  0
  2  3  1  0  0  0
  2 43  1  0  0  0
  3  4  2  0  0  0
  3  7  1  0  0  0
  4  5  1  0  0  0
  4 13  1  0  0  0
  5  6  2  0  0  0
  5 44  1  0  0  0
  6 45  1  0  0  0
  7 12  2  0  0  0
  7  8  1  0  0  0
  8  9  2  0  0  0
  8 46  1  0  0  0
  9 10  1  0  0  0
  9 47  1  0  0  0
 10 11  2  0  0  0
 10 18  1  0  0  0
 11 12  1  0  0  0
 11 48  1  0  0  0
 12 49  1  0  0  0
 13 17  1  0  0  0
 13 14  2  0  0  0
 14 15  1  0  0  0
 15 16  2  0  0  0
 16 17  1  0  0  0
 18 19  1  0  0  0
 18 50  1  0  0  0
 18 51  1  0  0  0
 19 23  1  0  0  0
 19 20  1  0  0  0
 20 21  2  0  0  0
 20 24  1  0  0  0
 21 22  1  0  0  0
 21 35  1  0  0  0
 22 23  2  0  0  0
 23 39  1  0  0  0
 24 25  1  0  0  0
 24 26  2  0  0  0
 25 27  1  0  0  0
 27 28  1  0  0  0
 27 52  1  0  0  0
 27 53  1  0  0  0
 28 32  2  0  0  0
 28 29  1  0  0  0
 29 30  1  0  0  0
 30 31  1  0  0  0
 30 34  2  0  0  0
 31 32  1  0  0  0
 32 33  1  0  0  0
 33 54  1  0  0  0
 33 55  1  0  0  0
 33 56  1  0  0  0
 35 36  1  0  0  0
 35 37  1  0  0  0
 35 38  1  0  0  0
 36 57  1  0  0  0
 37 58  1  0  0  0
 37 59  1  0  0  0
 37 60  1  0  0  0
 38 61  1  0  0  0
 38 62  1  0  0  0
 38 63  1  0  0  0
 39 40  1  0  0  0
 39 64  1  0  0  0
 39 65  1  0  0  0
 40 41  1  0  0  0
 40 66  1  0  0  0
 40 67  1  0  0  0
 41 68  1  0  0  0
 41 69  1  0  0  0
 41 70  1  0  0  0
M  CHG  1  17  -1
M  END
> <s_m_entry_id>
144

> <s_m_entry_name>
entry

> <i_lp_mmshare_version>
47013

> <i_f3d_flags>
0

> <s_epik_input>
W25IXTFubm5jMS1jMltjSF1bY0hdW2NIXVtjSF1jMi1jM1tjSF1bY0hdYyhbY0hdW2NIXTMpW0NIMl1uNGMoYyhDKFtPSF0pKFtDSDNdKVtDSDNdKW5jNFtDSDJdW0NIMl1bQ0gzXSlDKD1PKU9bQ0gyXWM1b2MoPU8pb2M1W0NIM10=

> <s_epik_cmdline>
J2VwaWtfcHl0aG9uJywgJy1waCcsICc3LjQnLCAnLXRuJywgJzgnLCAnLW1hJywgJzIwMCcsICctaW1hZScsICc8aW5maWxlLm1hZT4nLCAnLW9tYWUnLCAnPG91dGZpbGUubWFlPic=

> <r_epik_Ionization_Penalty>
  0.0203

> <r_epik_Ionization_Penalty_Charging>
  0.0203

> <r_epik_Ionization_Penalty_Neutral>
  0.0000

> <r_epik_State_Penalty>
  0.0160

> <r_epik_Charging_Adjusted_Penalty>
0.0362765566315124

> <i_epik_Tot_Q>
-1

> <i_epik_Tot_abs_Q>
1

> <s_lp_Force_Field>
OPLS3e

> <r_lp_Energy>
30.304342

> <b_lp_Chiralities_Consistent>
1

> <s_lp_Variant>
306-1

> <s_m_job_name>
ligprep_20

> <s_m_Source_Path>
/home/andre/Documents/projects/Esterase/data/FINAL_STUFF/Compounds/MAE_external

> <s_m_Source_File>
144.mae

> <i_m_Source_File_Index>
1

> <s_epik_Chemistry_Notes>
This compound has an ester and may undergo hydrolysis at high or low pH.

$$$$
