146
                    3D
 Schrodinger Suite 2021-1.
 59 63  0  0  1  0            999 V2000
   -2.9662   -0.2276   -0.4584 C   0  0  0  0  0  0
   -2.3817    0.9708   -0.0324 C   0  0  0  0  0  0
   -0.9920    1.0275    0.2821 C   0  0  0  0  0  0
   -0.1756   -0.1254    0.2148 C   0  0  0  0  0  0
   -0.8037   -1.2992   -0.2330 C   0  0  0  0  0  0
   -2.1554   -1.3525   -0.5614 C   0  0  0  0  0  0
   -0.7853    2.3696    0.6017 N   0  0  0  0  0  0
   -2.0327    2.9707    0.5435 C   0  0  0  0  0  0
   -2.9952    2.1761    0.1469 N   0  0  0  0  0  0
   -2.2206    4.2918    0.8810 O   0  0  0  0  0  0
    1.2646   -0.1942    0.5757 C   0  0  0  0  0  0
    1.7064    0.2179    1.6518 O   0  0  0  0  0  0
    2.0169   -0.7078   -0.4495 O   0  0  0  0  0  0
    3.4093   -0.7838   -0.2754 C   0  0  1  0  0  0
    3.9380   -1.6199   -1.4304 C   0  0  0  0  0  0
    4.0419    0.4379   -0.2331 O   0  0  0  0  0  0
   -3.3519    4.9519    0.3185 C   0  0  0  0  0  0
   -3.2052    6.4576    0.5585 C   0  0  0  0  0  0
    0.4789    3.0098    0.9959 C   0  0  0  0  0  0
    0.6033    4.4940    0.6694 C   0  0  0  0  0  0
    0.6296    4.9158   -0.6605 C   0  0  0  0  0  0
    0.6970    6.2738   -0.9572 C   0  0  0  0  0  0
    0.7446    7.2318    0.0650 C   0  0  0  0  0  0
    0.7268    6.7907    1.3951 C   0  0  0  0  0  0
    0.6618    5.4342    1.6980 C   0  0  0  0  0  0
    0.7859    8.6929   -0.2641 C   0  0  0  0  0  0
   -0.0591    9.1633   -1.2830 C   0  0  0  0  0  0
   -0.1257   10.5144   -1.6099 C   0  0  0  0  0  0
    0.6639   11.4299   -0.9264 C   0  0  0  0  0  0
    1.5337   10.9871    0.0649 C   0  0  0  0  0  0
    1.6298    9.6252    0.3953 C   0  0  0  0  0  0
    2.6791    9.2616    1.4141 C   0  0  0  0  0  0
    2.8541    9.9290    2.5348 N   0  0  0  0  0  0
    3.9002    9.3044    3.1715 N   0  0  0  0  0  0
    4.3202    8.2754    2.3709 N   0  0  0  0  0  0
    3.5312    8.2737    1.2451 N   0  5  0  0  0  0
   -4.0173   -0.2815   -0.7021 H   0  0  0  0  0  0
   -0.2343   -2.2146   -0.3189 H   0  0  0  0  0  0
   -2.5839   -2.2875   -0.8918 H   0  0  0  0  0  0
    3.6235   -1.3171    0.6536 H   0  0  0  0  0  0
    3.7337   -1.1286   -2.3833 H   0  0  0  0  0  0
    3.4630   -2.6020   -1.4294 H   0  0  0  0  0  0
    5.0152   -1.7585   -1.3285 H   0  0  0  0  0  0
   -3.4233    4.7599   -0.7541 H   0  0  0  0  0  0
   -4.2687    4.5851    0.7832 H   0  0  0  0  0  0
   -4.0550    7.0035    0.1487 H   0  0  0  0  0  0
   -2.3019    6.8437    0.0850 H   0  0  0  0  0  0
   -3.1456    6.6825    1.6237 H   0  0  0  0  0  0
    0.6338    2.8240    2.0599 H   0  0  0  0  0  0
    1.2938    2.5193    0.4657 H   0  0  0  0  0  0
    0.5831    4.1941   -1.4632 H   0  0  0  0  0  0
    0.7140    6.5793   -1.9931 H   0  0  0  0  0  0
    0.7461    7.5030    2.2069 H   0  0  0  0  0  0
    0.6369    5.1208    2.7314 H   0  0  0  0  0  0
   -0.7062    8.4788   -1.8121 H   0  0  0  0  0  0
   -0.7972   10.8509   -2.3859 H   0  0  0  0  0  0
    0.6130   12.4803   -1.1729 H   0  0  0  0  0  0
    2.1614   11.7146    0.5597 H   0  0  0  0  0  0
    3.8877    0.8187    0.6349 H   0  0  0  0  0  0
  1  2  2  0  0  0
  1  6  1  0  0  0
  1 37  1  0  0  0
  2  3  1  0  0  0
  2  9  1  0  0  0
  3  4  2  0  0  0
  3  7  1  0  0  0
  4  5  1  0  0  0
  4 11  1  0  0  0
  5  6  2  0  0  0
  5 38  1  0  0  0
  6 39  1  0  0  0
  7  8  1  0  0  0
  7 19  1  0  0  0
  8  9  2  0  0  0
  8 10  1  0  0  0
 10 17  1  0  0  0
 11 12  2  0  0  0
 11 13  1  0  0  0
 13 14  1  0  0  0
 14 15  1  0  0  0
 14 16  1  0  0  0
 14 40  1  0  0  0
 15 41  1  0  0  0
 15 42  1  0  0  0
 15 43  1  0  0  0
 16 59  1  0  0  0
 17 18  1  0  0  0
 17 44  1  0  0  0
 17 45  1  0  0  0
 18 46  1  0  0  0
 18 47  1  0  0  0
 18 48  1  0  0  0
 19 20  1  0  0  0
 19 49  1  0  0  0
 19 50  1  0  0  0
 20 25  2  0  0  0
 20 21  1  0  0  0
 21 22  2  0  0  0
 21 51  1  0  0  0
 22 23  1  0  0  0
 22 52  1  0  0  0
 23 24  2  0  0  0
 23 26  1  0  0  0
 24 25  1  0  0  0
 24 53  1  0  0  0
 25 54  1  0  0  0
 26 31  2  0  0  0
 26 27  1  0  0  0
 27 28  2  0  0  0
 27 55  1  0  0  0
 28 29  1  0  0  0
 28 56  1  0  0  0
 29 30  2  0  0  0
 29 57  1  0  0  0
 30 31  1  0  0  0
 30 58  1  0  0  0
 31 32  1  0  0  0
 32 36  1  0  0  0
 32 33  2  0  0  0
 33 34  1  0  0  0
 34 35  2  0  0  0
 35 36  1  0  0  0
M  CHG  1  36  -1
M  END
> <s_m_entry_id>
146

> <s_m_entry_name>
entry

> <i_lp_mmshare_version>
47013

> <i_f3d_flags>
0

> <s_epik_input>
W0NIM11bQ0BASF0oW09IXSlPQyg9TyljKFtjSF1bY0hdW2NIXTEpYyhjMTIpbihjKG4yKU9bQ0gyXVtDSDNdKVtDSDJdYzNbY0hdW2NIXWMoW2NIXVtjSF0zKS1jNFtjSF1bY0hdW2NIXVtjSF1jNC1jNW5ubltuSF01

> <s_epik_cmdline>
J2VwaWtfcHl0aG9uJywgJy1waCcsICc3LjQnLCAnLXRuJywgJzgnLCAnLW1hJywgJzIwMCcsICctaW1hZScsICc8aW5maWxlLm1hZT4nLCAnLW9tYWUnLCAnPG91dGZpbGUubWFlPic=

> <r_epik_Ionization_Penalty>
  0.0834

> <r_epik_Ionization_Penalty_Charging>
  0.0004

> <r_epik_Ionization_Penalty_Neutral>
  0.0830

> <r_epik_State_Penalty>
  0.0737

> <r_epik_Charging_Adjusted_Penalty>
0.0740759394808254

> <i_epik_Tot_Q>
-1

> <i_epik_Tot_abs_Q>
1

> <s_lp_Force_Field>
OPLS3e

> <r_lp_Energy>
53.379695

> <b_lp_Chiralities_Consistent>
1

> <s_lp_Variant>
308S-1

> <s_m_job_name>
ligprep_22

> <s_m_Source_Path>
/home/andre/Documents/projects/Esterase/data/FINAL_STUFF/Compounds/MAE_external

> <s_m_Source_File>
146.mae

> <i_m_Source_File_Index>
1

> <s_epik_Chemistry_Notes>
This compound has an ester and may undergo hydrolysis at high or low pH. This compound contains an acetal/aminal-like group ( X-CH(R)-Y where X, Y are N, S, or O) that may be acid/base labile, releasing an aldehyde.

$$$$
