148
                    3D
 Schrodinger Suite 2021-1.
 59 61  0  0  1  0            999 V2000
   -0.2211   -0.6448   -0.9922 O   0  0  0  0  0  0
    0.3096    0.1631    0.0597 C   0  0  2  0  0  0
   -0.2575    1.5853   -0.1161 C   0  0  0  0  0  0
   -1.6759    1.5248    0.0087 O   0  0  0  0  0  0
   -2.4381    2.6613   -0.1973 C   0  0  0  0  0  0
   -3.8573    2.5297   -0.1184 C   0  0  0  0  0  0
   -4.4862    1.2836    0.1572 C   0  0  0  0  0  0
   -5.8731    1.1862    0.2265 C   0  0  0  0  0  0
   -6.6707    2.3065    0.0275 C   0  0  0  0  0  0
   -6.0949    3.5434   -0.2451 C   0  0  0  0  0  0
   -4.6859    3.6781   -0.3230 C   0  0  0  0  0  0
   -4.0817    4.9264   -0.5998 C   0  0  0  0  0  0
   -2.6988    5.0352   -0.6724 C   0  0  0  0  0  0
   -1.8897    3.9232   -0.4743 C   0  0  0  0  0  0
    1.8544    0.1213    0.0363 C   0  0  0  0  0  0
    2.4100    0.7852    1.3088 N   0  3  0  0  0  0
    3.9353    0.6893    1.5029 C   0  0  0  0  0  0
    4.2564    1.1468    2.9340 C   0  0  0  0  0  0
    4.6620    1.5252    0.4329 C   0  0  0  0  0  0
   -0.3116   -1.9934   -0.8890 C   0  0  0  0  0  0
   -0.9529   -2.6235   -2.1428 C   0  0  0  0  0  0
    0.0758   -2.6635    0.0721 O   0  0  0  0  0  0
   -0.8030   -4.1662   -2.1512 C   0  0  0  0  0  0
   -1.3885   -4.7378   -3.4584 C   0  0  0  0  0  0
   -2.8655   -4.3233   -3.6470 C   0  0  0  0  0  0
   -3.0806   -2.7997   -3.4970 C   0  0  0  0  0  0
   -2.4573   -2.2584   -2.1931 C   0  0  0  0  0  0
   -0.0426   -0.2219    1.0193 H   0  0  0  0  0  0
    0.1444    2.2512    0.6494 H   0  0  0  0  0  0
    0.0282    1.9814   -1.0926 H   0  0  0  0  0  0
   -3.8839    0.4005    0.3141 H   0  0  0  0  0  0
   -6.3332    0.2317    0.4365 H   0  0  0  0  0  0
   -7.7455    2.2161    0.0843 H   0  0  0  0  0  0
   -6.7231    4.4090   -0.3995 H   0  0  0  0  0  0
   -4.7017    5.7978   -0.7549 H   0  0  0  0  0  0
   -2.2486    5.9938   -0.8848 H   0  0  0  0  0  0
   -0.8218    4.0646   -0.5396 H   0  0  0  0  0  0
    2.2437   -0.8976    0.0633 H   0  0  0  0  0  0
    2.2743    0.6585   -0.8142 H   0  0  0  0  0  0
    2.1388    1.7582    1.3227 H   0  0  0  0  0  0
    4.1606   -0.3734    1.3943 H   0  0  0  0  0  0
    5.3226    1.0532    3.1433 H   0  0  0  0  0  0
    3.7279    0.5438    3.6738 H   0  0  0  0  0  0
    3.9800    2.1899    3.0956 H   0  0  0  0  0  0
    5.7409    1.5019    0.5909 H   0  0  0  0  0  0
    4.3499    2.5700    0.4582 H   0  0  0  0  0  0
    4.4842    1.1465   -0.5736 H   0  0  0  0  0  0
   -0.4358   -2.2039   -3.0069 H   0  0  0  0  0  0
    0.2501   -4.4485   -2.1017 H   0  0  0  0  0  0
   -1.3081   -4.6206   -1.2962 H   0  0  0  0  0  0
   -0.7999   -4.3863   -4.3075 H   0  0  0  0  0  0
   -1.3053   -5.8253   -3.4601 H   0  0  0  0  0  0
   -3.2222   -4.6547   -4.6230 H   0  0  0  0  0  0
   -3.4786   -4.8437   -2.9094 H   0  0  0  0  0  0
   -2.6394   -2.2853   -4.3523 H   0  0  0  0  0  0
   -4.1470   -2.5722   -3.5229 H   0  0  0  0  0  0
   -2.9932   -2.6643   -1.3324 H   0  0  0  0  0  0
   -2.5966   -1.1754   -2.1860 H   0  0  0  0  0  0
    1.9722    0.3353    2.1005 H   0  0  0  0  0  0
  1  2  1  0  0  0
  1 20  1  0  0  0
  2  3  1  0  0  0
  2 15  1  0  0  0
  2 28  1  0  0  0
  3  4  1  0  0  0
  3 29  1  0  0  0
  3 30  1  0  0  0
  4  5  1  0  0  0
  5  6  1  0  0  0
  5 14  2  0  0  0
  6  7  2  0  0  0
  6 11  1  0  0  0
  7  8  1  0  0  0
  7 31  1  0  0  0
  8  9  2  0  0  0
  8 32  1  0  0  0
  9 10  1  0  0  0
  9 33  1  0  0  0
 10 11  2  0  0  0
 10 34  1  0  0  0
 11 12  1  0  0  0
 12 13  2  0  0  0
 12 35  1  0  0  0
 13 14  1  0  0  0
 13 36  1  0  0  0
 14 37  1  0  0  0
 15 16  1  0  0  0
 15 38  1  0  0  0
 15 39  1  0  0  0
 16 17  1  0  0  0
 16 40  1  0  0  0
 16 59  1  0  0  0
 17 18  1  0  0  0
 17 19  1  0  0  0
 17 41  1  0  0  0
 18 42  1  0  0  0
 18 43  1  0  0  0
 18 44  1  0  0  0
 19 45  1  0  0  0
 19 46  1  0  0  0
 19 47  1  0  0  0
 20 21  1  0  0  0
 20 22  2  0  0  0
 21 23  1  0  0  0
 21 27  1  0  0  0
 21 48  1  0  0  0
 23 24  1  0  0  0
 23 49  1  0  0  0
 23 50  1  0  0  0
 24 25  1  0  0  0
 24 51  1  0  0  0
 24 52  1  0  0  0
 25 26  1  0  0  0
 25 53  1  0  0  0
 25 54  1  0  0  0
 26 27  1  0  0  0
 26 55  1  0  0  0
 26 56  1  0  0  0
 27 57  1  0  0  0
 27 58  1  0  0  0
M  CHG  1  16   1
M  END
> <s_m_entry_id>
148

> <s_m_entry_name>
entry

> <i_lp_mmshare_version>
47013

> <i_f3d_flags>
0

> <s_epik_input>
W0NIMl0xW0NIMl1bQ0gyXVtDSDJdW0NIMl1bQ0hdMUMoPU8pT1tDQEBIXShbQ0gyXVtOSF1bQ0hdKFtDSDNdKVtDSDNdKVtDSDJdT2MyW2NIXVtjSF1bY0hdYyhjMjMpW2NIXVtjSF1bY0hdW2NIXTM=

> <s_epik_cmdline>
J2VwaWtfcHl0aG9uJywgJy1waCcsICc3LjQnLCAnLXRuJywgJzgnLCAnLW1hJywgJzIwMCcsICctaW1hZScsICc8aW5maWxlLm1hZT4nLCAnLW9tYWUnLCAnPG91dGZpbGUubWFlPic=

> <r_epik_Ionization_Penalty>
  0.0215

> <r_epik_Ionization_Penalty_Charging>
  0.0215

> <r_epik_Ionization_Penalty_Neutral>
  0.0000

> <r_epik_State_Penalty>
  0.0173

> <r_epik_Charging_Adjusted_Penalty>
0.0387914050852736

> <i_epik_Tot_Q>
1

> <i_epik_Tot_abs_Q>
1

> <s_lp_Force_Field>
OPLS3e

> <r_lp_Energy>
29.965962

> <b_lp_Chiralities_Consistent>
1

> <s_lp_Variant>
310-1

> <s_m_job_name>
ligprep_24

> <s_m_Source_Path>
/home/andre/Documents/projects/Esterase/data/FINAL_STUFF/Compounds/MAE_external

> <s_m_Source_File>
148.mae

> <i_m_Source_File_Index>
1

> <s_epik_Chemistry_Notes>
This compound has an ester and may undergo hydrolysis at high or low pH.

$$$$
