15
                    3D
 Schrodinger Suite 2021-1.
 47 51  0  0  1  0            999 V2000
   -2.1401    1.2203    0.0186 C   0  0  0  0  0  0
   -0.6229    1.3689   -0.0011 C   0  0  0  0  0  0
   -0.0987    2.4842   -0.0432 O   0  0  0  0  0  0
    0.0160    0.1683    0.0338 O   0  0  0  0  0  0
    1.3918    0.1374    0.0341 C   0  0  0  0  0  0
    2.0973    0.0828   -1.1696 C   0  0  0  0  0  0
    3.4915    0.0293   -1.1615 C   0  0  0  0  0  0
    4.2165    0.0202    0.0424 C   0  0  0  0  0  0
    3.4865    0.0621    1.2404 C   0  0  0  0  0  0
    2.0934    0.1151    1.2408 C   0  0  0  0  0  0
    5.7524   -0.0233    0.0106 C   0  0  0  0  0  0
    6.3308   -0.0044   -1.4129 C   0  0  0  0  0  0
    5.4648    0.0031   -2.5197 C   0  0  0  0  0  0
    4.0933   -0.0095   -2.3993 O   0  0  0  0  0  0
    5.9553    0.0308   -3.8253 C   0  0  0  0  0  0
    7.3324    0.0407   -4.0559 C   0  0  0  0  0  0
    8.2090    0.0471   -2.9696 C   0  0  0  0  0  0
    7.7109    0.0205   -1.6679 C   0  0  0  0  0  0
    7.8224    0.0895   -5.3406 O   0  0  0  0  0  0
    8.0372   -1.0718   -6.0156 C   0  0  0  0  0  0
    7.8456   -2.2162   -5.5984 O   0  0  0  0  0  0
    8.5706   -0.8337   -7.4236 C   0  0  0  0  0  0
    6.3754    1.0259    0.8975 C   0  0  0  0  0  0
    6.3498    2.4216    0.8454 C   0  0  0  0  0  0
    7.0338    3.1563    1.8171 C   0  0  0  0  0  0
    7.7352    2.4983    2.8319 C   0  0  0  0  0  0
    7.7556    1.1020    2.8815 C   0  0  0  0  0  0
    7.0698    0.3784    1.9049 C   0  0  0  0  0  0
    6.9194   -1.0781    1.7074 C   0  0  0  0  0  0
    7.3691   -2.0141    2.3652 O   0  0  0  0  0  0
    6.1467   -1.2596    0.6019 O   0  0  0  0  0  0
   -2.4371    0.1710    0.0053 H   0  0  0  0  0  0
   -2.5774    1.7115   -0.8507 H   0  0  0  0  0  0
   -2.5498    1.6812    0.9173 H   0  0  0  0  0  0
    1.5629    0.0861   -2.1088 H   0  0  0  0  0  0
    4.0077    0.0525    2.1864 H   0  0  0  0  0  0
    1.5591    0.1436    2.1792 H   0  0  0  0  0  0
    5.2689    0.0404   -4.6597 H   0  0  0  0  0  0
    9.2766    0.0689   -3.1342 H   0  0  0  0  0  0
    8.4097    0.0200   -0.8441 H   0  0  0  0  0  0
    8.6102    0.2305   -7.6587 H   0  0  0  0  0  0
    7.9282   -1.3222   -8.1561 H   0  0  0  0  0  0
    9.5762   -1.2434   -7.5180 H   0  0  0  0  0  0
    5.8098    2.9377    0.0652 H   0  0  0  0  0  0
    7.0200    4.2358    1.7841 H   0  0  0  0  0  0
    8.2626    3.0710    3.5804 H   0  0  0  0  0  0
    8.2995    0.6028    3.6704 H   0  0  0  0  0  0
  1  2  1  0  0  0
  1 32  1  0  0  0
  1 33  1  0  0  0
  1 34  1  0  0  0
  2  3  2  0  0  0
  2  4  1  0  0  0
  4  5  1  0  0  0
  5 10  1  0  0  0
  5  6  2  0  0  0
  6  7  1  0  0  0
  6 35  1  0  0  0
  7 14  1  0  0  0
  7  8  2  0  0  0
  8  9  1  0  0  0
  8 11  1  0  0  0
  9 10  2  0  0  0
  9 36  1  0  0  0
 10 37  1  0  0  0
 11 31  1  0  0  0
 11 12  1  0  0  0
 11 23  1  0  0  0
 12 18  1  0  0  0
 12 13  2  0  0  0
 13 14  1  0  0  0
 13 15  1  0  0  0
 15 16  2  0  0  0
 15 38  1  0  0  0
 16 17  1  0  0  0
 16 19  1  0  0  0
 17 18  2  0  0  0
 17 39  1  0  0  0
 18 40  1  0  0  0
 19 20  1  0  0  0
 20 21  2  0  0  0
 20 22  1  0  0  0
 22 41  1  0  0  0
 22 42  1  0  0  0
 22 43  1  0  0  0
 23 28  1  0  0  0
 23 24  2  0  0  0
 24 25  1  0  0  0
 24 44  1  0  0  0
 25 26  2  0  0  0
 25 45  1  0  0  0
 26 27  1  0  0  0
 26 46  1  0  0  0
 27 28  2  0  0  0
 27 47  1  0  0  0
 28 29  1  0  0  0
 29 30  2  0  0  0
 29 31  1  0  0  0
M  END
> <s_m_entry_id>
15

> <s_m_entry_name>
CC(=O)OC1=CC2=C(C=C1)C3(C4=C(O2)C=C(C=C4)OC(=O)C)C5=CC=CC=C5C(=O)O3

> <i_lp_mmshare_version>
47013

> <i_f3d_flags>
0

> <s_epik_input>
W2NIXTFbY0hdW2NIXVtjSF1jKEMoPU8pTzIpYzFDMjNjNGMoW2NIXWMoW2NIXVtjSF00KU9DKD1PKVtDSDNdKU9jNWMzW2NIXVtjSF1jKFtjSF01KU9DKD1PKVtDSDNd

> <s_epik_cmdline>
J2VwaWtfcHl0aG9uJywgJy1waCcsICc3LjAnLCAnLXRuJywgJzgnLCAnLW1hJywgJzIwMCcsICctaW1hZScsICc8aW5maWxlLm1hZT4nLCAnLW9tYWUnLCAnPG91dGZpbGUubWFlPic=

> <r_epik_Ionization_Penalty>
  0.0000

> <r_epik_Ionization_Penalty_Charging>
  0.0000

> <r_epik_Ionization_Penalty_Neutral>
  0.0000

> <r_epik_State_Penalty>
  0.0000

> <r_epik_Charging_Adjusted_Penalty>
0

> <i_epik_Tot_Q>
0

> <i_epik_Tot_abs_Q>
0

> <s_lp_Force_Field>
OPLS3e

> <r_lp_Energy>
43.641045

> <b_lp_Chiralities_Consistent>
1

> <s_lp_Variant>
CE2_65047_-1

> <s_m_job_name>
ligprep_46

> <s_m_Source_Path>
/home/andre/Documents/projects/Esterase/data/FINAL_STUFF/Compounds/MAE_external

> <s_m_Source_File>
15.mae

> <i_m_Source_File_Index>
1

> <r_lp_tautomer_probability>
1

> <s_epik_Chemistry_Notes>
This compound has an ester and may undergo hydrolysis at high or low pH.

$$$$
