156
                    3D
 Schrodinger Suite 2021-1.
 50 53  0  0  1  0            999 V2000
   -8.4157    0.0188   -0.0149 C   0  0  0  0  0  0
   -9.2527    0.1659    1.1317 C   0  0  0  0  0  0
   -8.6525    0.3210    2.4025 C   0  0  0  0  0  0
   -7.2665    0.3297    2.5311 C   0  0  0  0  0  0
   -6.4287    0.1851    1.4192 C   0  0  0  0  0  0
   -7.0084    0.0310    0.1506 C   0  0  0  0  0  0
   -4.9397    0.2066    1.6137 C   0  0  0  0  0  0
   -4.4060    0.4128    2.7092 O   0  0  0  0  0  0
   -4.2450   -0.0443    0.4595 O   0  0  0  0  0  0
   -2.8664   -0.0480    0.4747 C   0  0  0  0  0  0
   -2.1635   -1.2269    0.7481 C   0  0  0  0  0  0
   -0.7683   -1.2282    0.7480 C   0  0  0  0  0  0
   -0.0495   -0.0579    0.4664 C   0  0  0  0  0  0
   -0.7615    1.1127    0.1815 C   0  0  0  0  0  0
   -2.1564    1.1216    0.1825 C   0  0  0  0  0  0
   -2.8306   -2.3743    1.0141 F   0  0  0  0  0  0
   -2.8160    2.2697   -0.0994 F   0  0  0  0  0  0
    1.4299   -0.0022    0.4612 C   0  0  0  0  0  0
    4.2468   -1.5854    1.6975 N   0  0  0  0  0  0
    3.2535   -2.3078    2.2502 C   0  0  0  0  0  0
    2.1117   -1.8875    1.9165 N   0  0  0  0  0  0
    2.2937   -0.8310    1.0980 C   0  0  0  0  0  0
    3.7127   -0.6127    0.9424 C   0  0  0  0  0  0
    4.3110    0.2447    0.2859 O   0  0  0  0  0  0
    5.6956   -1.7435    1.8306 C   0  0  0  0  0  0
    3.5383   -3.4856    3.1652 C   0  0  0  0  0  0
   -9.2771    0.4335    3.2771 H   0  0  0  0  0  0
   -6.8501    0.4503    3.5216 H   0  0  0  0  0  0
   -6.3966   -0.0796   -0.7338 H   0  0  0  0  0  0
   -0.2577   -2.1563    0.9548 H   0  0  0  0  0  0
   -0.2334    2.0291   -0.0408 H   0  0  0  0  0  0
    1.8327    0.7976   -0.1474 H   0  0  0  0  0  0
    6.1478   -1.9443    0.8585 H   0  0  0  0  0  0
    5.9553   -2.5666    2.4965 H   0  0  0  0  0  0
    6.1444   -0.8346    2.2338 H   0  0  0  0  0  0
    4.1150   -4.2521    2.6471 H   0  0  0  0  0  0
    2.6158   -3.9488    3.5174 H   0  0  0  0  0  0
    4.1049   -3.1713    4.0419 H   0  0  0  0  0  0
   -8.8565   -0.0998   -0.9936 H   0  0  0  0  0  0
  -13.5019    0.1333    0.6925 C   0  0  0  0  0  0
  -12.9286    0.2888    1.9653 C   0  0  0  0  0  0
  -11.5316    0.2995    2.1097 C   0  0  0  0  0  0
  -10.7079    0.1547    0.9813 C   0  0  0  0  0  0
  -11.2811   -0.0007   -0.2915 C   0  0  0  0  0  0
  -12.6782   -0.0115   -0.4359 C   0  0  0  0  0  0
  -14.5994    0.1249    0.5791 H   0  0  0  0  0  0
  -13.5758    0.4025    2.8518 H   0  0  0  0  0  0
  -11.0812    0.4216    3.1096 H   0  0  0  0  0  0
  -10.6340   -0.1144   -1.1778 H   0  0  0  0  0  0
  -13.1286   -0.1336   -1.4358 H   0  0  0  0  0  0
  1  2  2  0  0  0
  1  6  1  0  0  0
  1 39  1  0  0  0
  2  3  1  0  0  0
  2 43  1  0  0  0
  3  4  2  0  0  0
  3 27  1  0  0  0
  4  5  1  0  0  0
  4 28  1  0  0  0
  5  6  2  0  0  0
  5  7  1  0  0  0
  6 29  1  0  0  0
  7  8  2  0  0  0
  7  9  1  0  0  0
  9 10  1  0  0  0
 10 11  2  0  0  0
 10 15  1  0  0  0
 11 12  1  0  0  0
 11 16  1  0  0  0
 12 13  2  0  0  0
 12 30  1  0  0  0
 13 14  1  0  0  0
 13 18  1  0  0  0
 14 15  2  0  0  0
 14 31  1  0  0  0
 15 17  1  0  0  0
 18 22  2  0  0  0
 18 32  1  0  0  0
 19 20  1  0  0  0
 19 23  1  0  0  0
 19 25  1  0  0  0
 20 21  2  0  0  0
 20 26  1  0  0  0
 21 22  1  0  0  0
 22 23  1  0  0  0
 23 24  2  0  0  0
 25 33  1  0  0  0
 25 34  1  0  0  0
 25 35  1  0  0  0
 26 36  1  0  0  0
 26 37  1  0  0  0
 26 38  1  0  0  0
 40 41  2  0  0  0
 40 45  1  0  0  0
 40 46  1  0  0  0
 41 42  1  0  0  0
 41 47  1  0  0  0
 42 43  2  0  0  0
 42 48  1  0  0  0
 43 44  1  0  0  0
 44 45  2  0  0  0
 44 49  1  0  0  0
 45 50  1  0  0  0
M  END
> <s_m_entry_id>
156

> <s_m_entry_name>
entry

> <i_lp_mmshare_version>
47013

> <i_f3d_flags>
0

> <s_epik_input>
W2NIXTFbY0hdW2NIXVtjSF1jKGMxMilbY0hdW2NIXWMoW2NIXTIpQyg9TylPYzNjKEYpW2NIXWMoW2NIXWMzRikvW0NIXT1DKEM0PU8pXE49QyhbQ0gzXSlONFtDSDNd

> <s_epik_cmdline>
J2VwaWtfcHl0aG9uJywgJy1waCcsICc3LjQnLCAnLXRuJywgJzgnLCAnLW1hJywgJzIwMCcsICctaW1hZScsICc8aW5maWxlLm1hZT4nLCAnLW9tYWUnLCAnPG91dGZpbGUubWFlPic=

> <r_epik_Ionization_Penalty>
  0.0001

> <r_epik_Ionization_Penalty_Charging>
  0.0000

> <r_epik_Ionization_Penalty_Neutral>
  0.0001

> <r_epik_State_Penalty>
  0.4107

> <r_epik_Charging_Adjusted_Penalty>
0.410679838952604

> <i_epik_Tot_Q>
0

> <i_epik_Tot_abs_Q>
0

> <s_lp_Force_Field>
OPLS3e

> <r_lp_Energy>
36.490715

> <b_lp_Chiralities_Consistent>
1

> <s_lp_Variant>
317-1

> <s_m_job_name>
ligprep_31

> <s_m_Source_Path>
/home/andre/Documents/projects/Esterase/data/FINAL_STUFF/Compounds/MAE_external

> <s_m_Source_File>
156.mae

> <i_m_Source_File_Index>
1

> <r_lp_tautomer_probability>
0.5

> <s_epik_Chemistry_Notes>
This compound has an imine and may undergo hydrolysis.

$$$$
