16
                    3D
 Schrodinger Suite 2021-1.
 46 47  0  0  1  0            999 V2000
   -2.5738   -2.5107    0.0679 C   0  0  0  0  0  0
   -2.1501   -1.2062   -0.6229 C   0  0  0  0  0  0
   -2.3906   -1.2574   -2.1446 C   0  0  0  0  0  0
   -0.7700   -0.9930   -0.3297 O   0  0  0  0  0  0
   -0.1989    0.2367   -0.4099 C   0  0  0  0  0  0
   -0.7858    1.2752   -0.7242 O   0  0  0  0  0  0
    1.3101    0.2351   -0.0421 C   0  0  0  0  0  0
    2.0963   -0.0775   -1.3367 C   0  0  0  0  0  0
    1.8205    1.5934    0.5101 C   0  0  0  0  0  0
    1.6818   -0.8597    0.8212 O   0  0  0  0  0  0
    1.2224   -1.0264    2.1198 C   0  0  0  0  0  0
    1.7773   -2.0946    2.8235 C   0  0  0  0  0  0
    1.3969   -2.3601    4.1355 C   0  0  0  0  0  0
    0.4553   -1.5471    4.7798 C   0  0  0  0  0  0
   -0.1300   -0.4962    4.0621 C   0  0  0  0  0  0
    0.2555   -0.2308    2.7510 C   0  0  0  0  0  0
   -0.0040   -1.8361    6.1822 C   0  0  0  0  0  0
   -1.1368   -1.4959    6.5339 O   0  0  0  0  0  0
    0.8905   -2.5404    7.1620 C   0  0  0  0  0  0
    0.3242   -3.3235    8.1784 C   0  0  0  0  0  0
    1.1347   -3.9469    9.1236 C   0  0  0  0  0  0
    2.5157   -3.7745    9.0723 C   0  0  0  0  0  0
    3.0907   -2.9761    8.0869 C   0  0  0  0  0  0
    2.2807   -2.3533    7.1412 C   0  0  0  0  0  0
    3.5206   -4.5460   10.2445 Cl  0  0  0  0  0  0
   -3.6280   -2.7255   -0.1093 H   0  0  0  0  0  0
   -2.4309   -2.4459    1.1472 H   0  0  0  0  0  0
   -1.9951   -3.3619   -0.2932 H   0  0  0  0  0  0
   -2.7422   -0.3957   -0.1932 H   0  0  0  0  0  0
   -3.4413   -1.4423   -2.3687 H   0  0  0  0  0  0
   -1.8054   -2.0494   -2.6134 H   0  0  0  0  0  0
   -2.1192   -0.3165   -2.6239 H   0  0  0  0  0  0
    1.9391    0.6817   -2.1052 H   0  0  0  0  0  0
    1.8114   -1.0404   -1.7655 H   0  0  0  0  0  0
    3.1696   -0.1226   -1.1472 H   0  0  0  0  0  0
    1.7243    2.3890   -0.2305 H   0  0  0  0  0  0
    2.8749    1.5333    0.7824 H   0  0  0  0  0  0
    1.2823    1.9243    1.3966 H   0  0  0  0  0  0
    2.5093   -2.7295    2.3459 H   0  0  0  0  0  0
    1.8359   -3.2125    4.6332 H   0  0  0  0  0  0
   -0.8822    0.1341    4.5156 H   0  0  0  0  0  0
   -0.2236    0.5916    2.2463 H   0  0  0  0  0  0
   -0.7460   -3.4639    8.2397 H   0  0  0  0  0  0
    0.6899   -4.5584    9.8952 H   0  0  0  0  0  0
    4.1608   -2.8312    8.0582 H   0  0  0  0  0  0
    2.7477   -1.7172    6.4032 H   0  0  0  0  0  0
  1  2  1  0  0  0
  1 26  1  0  0  0
  1 27  1  0  0  0
  1 28  1  0  0  0
  2  3  1  0  0  0
  2  4  1  0  0  0
  2 29  1  0  0  0
  3 30  1  0  0  0
  3 31  1  0  0  0
  3 32  1  0  0  0
  4  5  1  0  0  0
  5  6  2  0  0  0
  5  7  1  0  0  0
  7  8  1  0  0  0
  7  9  1  0  0  0
  7 10  1  0  0  0
  8 33  1  0  0  0
  8 34  1  0  0  0
  8 35  1  0  0  0
  9 36  1  0  0  0
  9 37  1  0  0  0
  9 38  1  0  0  0
 10 11  1  0  0  0
 11 16  2  0  0  0
 11 12  1  0  0  0
 12 13  2  0  0  0
 12 39  1  0  0  0
 13 14  1  0  0  0
 13 40  1  0  0  0
 14 15  2  0  0  0
 14 17  1  0  0  0
 15 16  1  0  0  0
 15 41  1  0  0  0
 16 42  1  0  0  0
 17 18  2  0  0  0
 17 19  1  0  0  0
 19 24  1  0  0  0
 19 20  2  0  0  0
 20 21  1  0  0  0
 20 43  1  0  0  0
 21 22  2  0  0  0
 21 44  1  0  0  0
 22 23  1  0  0  0
 22 25  1  0  0  0
 23 24  2  0  0  0
 23 45  1  0  0  0
 24 46  1  0  0  0
M  END
> <s_m_entry_id>
16

> <s_m_entry_name>
entry

> <i_lp_mmshare_version>
47013

> <i_f3d_flags>
0

> <s_epik_input>
W0NIM11bQ0hdKFtDSDNdKU9DKD1PKUMoW0NIM10pKFtDSDNdKU9jMVtjSF1bY0hdYyhbY0hdW2NIXTEpQyg9TyljMltjSF1bY0hdYyhDbClbY0hdW2NIXTI=

> <s_epik_cmdline>
J2VwaWtfcHl0aG9uJywgJy1waCcsICc3LjQnLCAnLXRuJywgJzgnLCAnLW1hJywgJzIwMCcsICctaW1hZScsICc8aW5maWxlLm1hZT4nLCAnLW9tYWUnLCAnPG91dGZpbGUubWFlPic=

> <r_epik_Ionization_Penalty>
  0.0000

> <r_epik_Ionization_Penalty_Charging>
  0.0000

> <r_epik_Ionization_Penalty_Neutral>
  0.0000

> <r_epik_State_Penalty>
  0.0000

> <r_epik_Charging_Adjusted_Penalty>
0

> <i_epik_Tot_Q>
0

> <i_epik_Tot_abs_Q>
0

> <s_lp_Force_Field>
OPLS3e

> <r_lp_Energy>
32.602304

> <b_lp_Chiralities_Consistent>
1

> <s_lp_Variant>
CE_3339-1

> <s_m_job_name>
ligprep_78

> <s_m_Source_Path>
/home/andre/Documents/projects/Esterase/data/FINAL_STUFF/Compounds/MAE_external

> <s_m_Source_File>
16.mae

> <i_m_Source_File_Index>
1

> <r_lp_tautomer_probability>
1

> <s_epik_Chemistry_Notes>
This compound has an ester and may undergo hydrolysis at high or low pH.

$$$$
