161
                    3D
 Schrodinger Suite 2021-1.
 55 58  0  0  1  0            999 V2000
   -2.2019    1.1596    1.1395 C   0  0  0  0  0  0
   -1.7317    1.4643   -0.3100 C   0  0  1  0  0  0
   -2.5082    2.7271   -0.8315 C   0  0  1  0  0  0
   -2.2699    3.9565    0.0960 C   0  0  0  0  0  0
   -2.7374    3.6376    1.5316 C   0  0  0  0  0  0
   -2.0546    2.3689    2.0927 C   0  0  0  0  0  0
   -0.1815    1.4959   -0.3844 C   0  0  0  0  0  0
    0.4522    2.5203   -0.6546 O   0  0  0  0  0  0
    0.3515    0.2667   -0.1353 O   0  0  0  0  0  0
    1.7490    0.1484   -0.1889 C   0  0  0  0  0  0
    2.0817   -1.2553   -0.1171 N   0  0  0  0  0  0
    2.1586   -1.9435    1.0514 C   0  0  0  0  0  0
    2.4928   -3.1920    0.7068 N   0  0  0  0  0  0
    2.5647   -3.4420   -0.7135 C   0  0  0  0  0  0
    2.0414   -2.0812   -1.1879 C   0  0  0  0  0  0
    4.0422   -3.6950   -1.1483 C   0  0  0  0  0  0
    4.5522   -3.2289   -2.3736 C   0  0  0  0  0  0
    5.8708   -3.4822   -2.7405 C   0  0  0  0  0  0
    6.6967   -4.2105   -1.8908 C   0  0  0  0  0  0
    6.2124   -4.6929   -0.6796 C   0  0  0  0  0  0
    4.8936   -4.4397   -0.3140 C   0  0  0  0  0  0
    1.5898   -4.5915   -1.1051 C   0  0  0  0  0  0
    0.2096   -4.4677   -0.8594 C   0  0  0  0  0  0
   -0.6733   -5.4900   -1.1936 C   0  0  0  0  0  0
   -0.1879   -6.6564   -1.7749 C   0  0  0  0  0  0
    1.1731   -6.8088   -2.0182 C   0  0  0  0  0  0
    2.0556   -5.7861   -1.6813 C   0  0  0  0  0  0
    1.8864   -1.5478    2.1845 O   0  0  0  0  0  0
    1.6734   -1.8107   -2.3338 O   0  0  0  0  0  0
   -2.2202    3.0450   -2.3249 C   0  0  0  0  0  0
   -2.3539    4.2271   -2.7142 O   0  5  0  0  0  0
   -2.0252    2.0754   -3.0925 O   0  0  0  0  0  0
   -3.2619    0.9040    1.0986 H   0  0  0  0  0  0
   -1.7325    0.2592    1.5396 H   0  0  0  0  0  0
   -2.0289    0.6184   -0.9318 H   0  0  0  0  0  0
   -3.5720    2.4829   -0.8276 H   0  0  0  0  0  0
   -1.2188    4.2416    0.1318 H   0  0  0  0  0  0
   -2.8356    4.8237   -0.2486 H   0  0  0  0  0  0
   -2.5336    4.4865    2.1850 H   0  0  0  0  0  0
   -3.8199    3.5015    1.5399 H   0  0  0  0  0  0
   -2.4756    2.1239    3.0683 H   0  0  0  0  0  0
   -0.9964    2.5712    2.2639 H   0  0  0  0  0  0
    2.1581    0.5633   -1.1163 H   0  0  0  0  0  0
    2.2004    0.6733    0.6584 H   0  0  0  0  0  0
    2.9745   -3.8095    1.3437 H   0  0  0  0  0  0
    3.9346   -2.6755   -3.0640 H   0  0  0  0  0  0
    6.2497   -3.1182   -3.6841 H   0  0  0  0  0  0
    7.7196   -4.4075   -2.1762 H   0  0  0  0  0  0
    6.8562   -5.2644   -0.0272 H   0  0  0  0  0  0
    4.5343   -4.8342    0.6249 H   0  0  0  0  0  0
   -0.1878   -3.5724   -0.4033 H   0  0  0  0  0  0
   -1.7302   -5.3783   -1.0016 H   0  0  0  0  0  0
   -0.8718   -7.4501   -2.0369 H   0  0  0  0  0  0
    1.5443   -7.7181   -2.4675 H   0  0  0  0  0  0
    3.1034   -5.9426   -1.8866 H   0  0  0  0  0  0
  1  2  1  0  0  0
  1  6  1  0  0  0
  1 33  1  0  0  0
  1 34  1  0  0  0
  2  3  1  0  0  0
  2  7  1  0  0  0
  2 35  1  0  0  0
  3  4  1  0  0  0
  3 30  1  0  0  0
  3 36  1  0  0  0
  4  5  1  0  0  0
  4 37  1  0  0  0
  4 38  1  0  0  0
  5  6  1  0  0  0
  5 39  1  0  0  0
  5 40  1  0  0  0
  6 41  1  0  0  0
  6 42  1  0  0  0
  7  8  2  0  0  0
  7  9  1  0  0  0
  9 10  1  0  0  0
 10 11  1  0  0  0
 10 43  1  0  0  0
 10 44  1  0  0  0
 11 12  1  0  0  0
 11 15  1  0  0  0
 12 13  1  0  0  0
 12 28  2  0  0  0
 13 14  1  0  0  0
 13 45  1  0  0  0
 14 15  1  0  0  0
 14 16  1  0  0  0
 14 22  1  0  0  0
 15 29  2  0  0  0
 16 17  2  0  0  0
 16 21  1  0  0  0
 17 18  1  0  0  0
 17 46  1  0  0  0
 18 19  2  0  0  0
 18 47  1  0  0  0
 19 20  1  0  0  0
 19 48  1  0  0  0
 20 21  2  0  0  0
 20 49  1  0  0  0
 21 50  1  0  0  0
 22 23  2  0  0  0
 22 27  1  0  0  0
 23 24  1  0  0  0
 23 51  1  0  0  0
 24 25  2  0  0  0
 24 52  1  0  0  0
 25 26  1  0  0  0
 25 53  1  0  0  0
 26 27  2  0  0  0
 26 54  1  0  0  0
 27 55  1  0  0  0
 30 31  1  0  0  0
 30 32  2  0  0  0
M  CHG  1  31  -1
M  END
> <s_m_entry_id>
161

> <s_m_entry_name>
entry

> <i_lp_mmshare_version>
47013

> <i_f3d_flags>
0

> <s_epik_input>
W09IXUMoPU8pW0NAQEhdMVtDSDJdW0NIMl1bQ0gyXVtDSDJdW0NAQEhdMUMoPU8pT1tDSDJdTihDMj1PKUMoPU8pW05IXUMyKGMzW2NIXVtjSF1bY0hdW2NIXVtjSF0zKWM0W2NIXVtjSF1bY0hdW2NIXVtjSF00

> <s_epik_cmdline>
J2VwaWtfcHl0aG9uJywgJy1waCcsICc3LjQnLCAnLXRuJywgJzgnLCAnLW1hJywgJzIwMCcsICctaW1hZScsICc8aW5maWxlLm1hZT4nLCAnLW9tYWUnLCAnPG91dGZpbGUubWFlPic=

> <r_epik_Ionization_Penalty>
  0.0187

> <r_epik_Ionization_Penalty_Charging>
  0.0007

> <r_epik_Ionization_Penalty_Neutral>
  0.0180

> <r_epik_State_Penalty>
  0.0143

> <r_epik_Charging_Adjusted_Penalty>
0.0150200154475306

> <i_epik_Tot_Q>
-1

> <i_epik_Tot_abs_Q>
1

> <s_lp_Force_Field>
OPLS3e

> <r_lp_Energy>
51.212552

> <b_lp_Chiralities_Consistent>
1

> <s_lp_Variant>
323-1

> <s_m_job_name>
ligprep_37

> <s_m_Source_Path>
/home/andre/Documents/projects/Esterase/data/FINAL_STUFF/Compounds/MAE_external

> <s_m_Source_File>
161.mae

> <i_m_Source_File_Index>
1

> <r_lp_tautomer_probability>
0.999999999999795

> <s_epik_Chemistry_Notes>
This compound has an ester and may undergo hydrolysis at high or low pH. This compound contains an acetal/aminal-like group ( X-CH(R)-Y where X, Y are N, S, or O) that may be acid/base labile, releasing an aldehyde.

$$$$
