166
                    3D
 Schrodinger Suite 2021-1.
100103  0  0  1  0            999 V2000
   -2.1940    0.1159   -2.4631 C   0  0  0  0  0  0
   -0.7940   -0.2368   -1.9392 C   0  0  0  0  0  0
   -0.2058    0.7091   -0.8635 C   0  0  1  0  0  0
    1.0893    0.1241   -0.2501 C   0  0  0  0  0  0
    1.6572    0.8779    0.9777 C   0  0  1  0  0  0
    2.7635    0.0699    1.6907 C   0  0  0  0  0  0
    3.3307    0.7524    2.9580 C   0  0  0  0  0  0
   -2.8617    1.0463   -2.0051 O   0  0  0  0  0  0
   -2.5733   -0.7182   -3.4506 O   0  0  0  0  0  0
    0.0509    1.9797   -1.4358 O   0  0  0  0  0  0
    2.1716    2.1366    0.5841 O   0  0  0  0  0  0
    4.3289   -0.0953    3.6244 N   0  0  0  0  0  0
    5.6999    0.0136    3.4623 C   0  0  0  0  0  0
    6.3187   -0.9595    4.2430 C   0  0  0  0  0  0
    5.2905   -1.6993    4.8603 C   0  0  0  0  0  0
    4.0545   -1.1500    4.4848 C   0  0  0  0  0  0
    2.2325   -0.8443    6.2212 C   0  0  0  0  0  0
    2.6124   -1.5077    4.8855 C   0  0  0  0  0  0
    2.3416   -3.0249    4.9109 C   0  0  0  0  0  0
    5.4918   -2.7742    5.7888 C   0  0  0  0  0  0
    5.7543   -3.9068    5.3860 O   0  0  0  0  0  0
    5.3621   -2.3761    7.0721 N   0  0  0  0  0  0
    5.4504   -3.1272    8.2585 C   0  0  0  0  0  0
    5.3593   -2.3956    9.4460 C   0  0  0  0  0  0
    5.4281   -3.0422   10.6769 C   0  0  0  0  0  0
    5.5853   -4.4247   10.7221 C   0  0  0  0  0  0
    5.6733   -5.1663    9.5469 C   0  0  0  0  0  0
    5.6055   -4.5226    8.3137 C   0  0  0  0  0  0
    7.7970   -1.1624    4.3650 C   0  0  0  0  0  0
    8.4128   -1.1693    5.6206 C   0  0  0  0  0  0
    9.7884   -1.3593    5.7224 C   0  0  0  0  0  0
   10.5473   -1.5400    4.5682 C   0  0  0  0  0  0
    9.9432   -1.5310    3.3131 C   0  0  0  0  0  0
    8.5678   -1.3414    3.2118 C   0  0  0  0  0  0
    6.3524    1.0587    2.6206 C   0  0  0  0  0  0
    6.2756    1.0073    1.2266 C   0  0  0  0  0  0
    6.8990    1.9882    0.4600 C   0  0  0  0  0  0
    7.6050    3.0119    1.0889 C   0  0  0  0  0  0
    7.6956    3.0606    2.4784 C   0  0  0  0  0  0
    7.0712    2.0808    3.2453 C   0  0  0  0  0  0
    8.2115    3.9636    0.3439 F   0  0  0  0  0  0
   -3.8548   -0.5985   -4.0560 C   0  0  0  0  0  0
   -4.0545   -1.7124   -5.0971 C   0  0  0  0  0  0
   -4.0117   -3.1320   -4.4985 C   0  0  0  0  0  0
   -4.2517   -4.2357   -5.5469 C   0  0  0  0  0  0
   -4.0637   -5.6709   -5.0150 C   0  0  0  0  0  0
   -5.0872   -6.0939   -3.9401 C   0  0  0  0  0  0
   -4.8870   -7.5255   -3.4054 C   0  0  0  0  0  0
   -5.1475   -8.6321   -4.4394 C   0  0  0  0  0  0
   -0.8520   -1.2458   -1.5298 H   0  0  0  0  0  0
   -0.1113   -0.2930   -2.7880 H   0  0  0  0  0  0
   -0.9364    0.8415   -0.0632 H   0  0  0  0  0  0
    0.8703   -0.8984    0.0619 H   0  0  0  0  0  0
    1.8592    0.0342   -1.0191 H   0  0  0  0  0  0
    0.8480    1.0538    1.6882 H   0  0  0  0  0  0
    2.3640   -0.9099    1.9540 H   0  0  0  0  0  0
    3.5714   -0.1265    0.9869 H   0  0  0  0  0  0
    3.7832    1.7125    2.7080 H   0  0  0  0  0  0
    2.5404    0.9957    3.6687 H   0  0  0  0  0  0
    0.6864    1.8715   -2.1471 H   0  0  0  0  0  0
    1.4780    2.6163    0.1238 H   0  0  0  0  0  0
    2.3451    0.2394    6.1713 H   0  0  0  0  0  0
    2.8526   -1.2040    7.0424 H   0  0  0  0  0  0
    1.1947   -1.0527    6.4837 H   0  0  0  0  0  0
    1.9061   -1.1226    4.1524 H   0  0  0  0  0  0
    2.6677   -3.5017    3.9858 H   0  0  0  0  0  0
    1.2760   -3.2276    5.0236 H   0  0  0  0  0  0
    2.8423   -3.5225    5.7408 H   0  0  0  0  0  0
    5.1673   -1.3961    7.2138 H   0  0  0  0  0  0
    5.2351   -1.3221    9.4230 H   0  0  0  0  0  0
    5.3584   -2.4741   11.5930 H   0  0  0  0  0  0
    5.6372   -4.9269   11.6770 H   0  0  0  0  0  0
    5.7913   -6.2388    9.5911 H   0  0  0  0  0  0
    5.6697   -5.1321    7.4272 H   0  0  0  0  0  0
    7.8303   -1.0239    6.5184 H   0  0  0  0  0  0
   10.2645   -1.3659    6.6918 H   0  0  0  0  0  0
   11.6142   -1.6883    4.6473 H   0  0  0  0  0  0
   10.5381   -1.6724    2.4227 H   0  0  0  0  0  0
    8.1025   -1.3386    2.2367 H   0  0  0  0  0  0
    5.7477    0.2046    0.7349 H   0  0  0  0  0  0
    6.8394    1.9521   -0.6177 H   0  0  0  0  0  0
    8.2485    3.8539    2.9592 H   0  0  0  0  0  0
    7.1446    2.1177    4.3228 H   0  0  0  0  0  0
   -4.6370   -0.6542   -3.2968 H   0  0  0  0  0  0
   -3.9407    0.3767   -4.5381 H   0  0  0  0  0  0
   -5.0154   -1.5584   -5.5899 H   0  0  0  0  0  0
   -3.2974   -1.6168   -5.8769 H   0  0  0  0  0  0
   -3.0441   -3.2961   -4.0218 H   0  0  0  0  0  0
   -4.7586   -3.2056   -3.7073 H   0  0  0  0  0  0
   -5.2525   -4.1310   -5.9688 H   0  0  0  0  0  0
   -3.5610   -4.0881   -6.3788 H   0  0  0  0  0  0
   -4.1283   -6.3547   -5.8618 H   0  0  0  0  0  0
   -3.0522   -5.7805   -4.6206 H   0  0  0  0  0  0
   -5.0253   -5.4094   -3.0939 H   0  0  0  0  0  0
   -6.0991   -5.9909   -4.3348 H   0  0  0  0  0  0
   -3.8771   -7.6307   -3.0067 H   0  0  0  0  0  0
   -5.5570   -7.6788   -2.5585 H   0  0  0  0  0  0
   -5.0564   -9.6173   -3.9813 H   0  0  0  0  0  0
   -4.4354   -8.5905   -5.2634 H   0  0  0  0  0  0
   -6.1519   -8.5547   -4.8569 H   0  0  0  0  0  0
  1  2  1  0  0  0
  1  8  2  0  0  0
  1  9  1  0  0  0
  2  3  1  0  0  0
  2 50  1  0  0  0
  2 51  1  0  0  0
  3  4  1  0  0  0
  3 10  1  0  0  0
  3 52  1  0  0  0
  4  5  1  0  0  0
  4 53  1  0  0  0
  4 54  1  0  0  0
  5  6  1  0  0  0
  5 11  1  0  0  0
  5 55  1  0  0  0
  6  7  1  0  0  0
  6 56  1  0  0  0
  6 57  1  0  0  0
  7 12  1  0  0  0
  7 58  1  0  0  0
  7 59  1  0  0  0
  9 42  1  0  0  0
 10 60  1  0  0  0
 11 61  1  0  0  0
 12 13  1  0  0  0
 12 16  1  0  0  0
 13 14  2  0  0  0
 13 35  1  0  0  0
 14 15  1  0  0  0
 14 29  1  0  0  0
 15 16  2  0  0  0
 15 20  1  0  0  0
 16 18  1  0  0  0
 17 18  1  0  0  0
 17 62  1  0  0  0
 17 63  1  0  0  0
 17 64  1  0  0  0
 18 19  1  0  0  0
 18 65  1  0  0  0
 19 66  1  0  0  0
 19 67  1  0  0  0
 19 68  1  0  0  0
 20 21  2  0  0  0
 20 22  1  0  0  0
 22 23  1  0  0  0
 22 69  1  0  0  0
 23 24  2  0  0  0
 23 28  1  0  0  0
 24 25  1  0  0  0
 24 70  1  0  0  0
 25 26  2  0  0  0
 25 71  1  0  0  0
 26 27  1  0  0  0
 26 72  1  0  0  0
 27 28  2  0  0  0
 27 73  1  0  0  0
 28 74  1  0  0  0
 29 30  2  0  0  0
 29 34  1  0  0  0
 30 31  1  0  0  0
 30 75  1  0  0  0
 31 32  2  0  0  0
 31 76  1  0  0  0
 32 33  1  0  0  0
 32 77  1  0  0  0
 33 34  2  0  0  0
 33 78  1  0  0  0
 34 79  1  0  0  0
 35 36  2  0  0  0
 35 40  1  0  0  0
 36 37  1  0  0  0
 36 80  1  0  0  0
 37 38  2  0  0  0
 37 81  1  0  0  0
 38 39  1  0  0  0
 38 41  1  0  0  0
 39 40  2  0  0  0
 39 82  1  0  0  0
 40 83  1  0  0  0
 42 43  1  0  0  0
 42 84  1  0  0  0
 42 85  1  0  0  0
 43 44  1  0  0  0
 43 86  1  0  0  0
 43 87  1  0  0  0
 44 45  1  0  0  0
 44 88  1  0  0  0
 44 89  1  0  0  0
 45 46  1  0  0  0
 45 90  1  0  0  0
 45 91  1  0  0  0
 46 47  1  0  0  0
 46 92  1  0  0  0
 46 93  1  0  0  0
 47 48  1  0  0  0
 47 94  1  0  0  0
 47 95  1  0  0  0
 48 49  1  0  0  0
 48 96  1  0  0  0
 48 97  1  0  0  0
 49 98  1  0  0  0
 49 99  1  0  0  0
 49100  1  0  0  0
M  END
> <s_m_entry_id>
166

> <s_m_entry_name>
entry

> <i_lp_mmshare_version>
47013

> <i_f3d_flags>
0

> <s_epik_input>
W0NIM11bQ0gyXVtDSDJdW0NIMl1bQ0gyXVtDSDJdW0NIMl1bQ0gyXU9DKD1PKVtDSDJdW0NASF0oW09IXSlbQ0gyXVtDQEhdKFtPSF0pW0NIMl1bQ0gyXW4xYygtYzJbY0hdW2NIXWMoRilbY0hdW2NIXTIpYygtYzNbY0hdW2NIXVtjSF1bY0hdW2NIXTMpYyhjMVtDSF0oW0NIM10pW0NIM10pQyg9TylbTkhdYzRbY0hdW2NIXVtjSF1bY0hdW2NIXTQ=

> <s_epik_cmdline>
J2VwaWtfcHl0aG9uJywgJy1waCcsICc3LjQnLCAnLXRuJywgJzgnLCAnLW1hJywgJzIwMCcsICctaW1hZScsICc8aW5maWxlLm1hZT4nLCAnLW9tYWUnLCAnPG91dGZpbGUubWFlPic=

> <r_epik_Ionization_Penalty>
  0.0000

> <r_epik_Ionization_Penalty_Charging>
  0.0000

> <r_epik_Ionization_Penalty_Neutral>
  0.0000

> <r_epik_State_Penalty>
  0.0000

> <r_epik_Charging_Adjusted_Penalty>
0

> <i_epik_Tot_Q>
0

> <i_epik_Tot_abs_Q>
0

> <s_lp_Force_Field>
OPLS3e

> <r_lp_Energy>
49.235356

> <b_lp_Chiralities_Consistent>
1

> <s_lp_Variant>
328-1

> <s_m_job_name>
ligprep_42

> <s_m_Source_Path>
/home/andre/Documents/projects/Esterase/data/FINAL_STUFF/Compounds/MAE_external

> <s_m_Source_File>
166.mae

> <i_m_Source_File_Index>
1

> <r_lp_tautomer_probability>
1

> <s_epik_Chemistry_Notes>
This compound has an ester and may undergo hydrolysis at high or low pH.

$$$$
