167
                    3D
 Schrodinger Suite 2021-1.
103106  0  0  1  0            999 V2000
    1.3646    0.3410   -3.3645 C   0  0  0  0  0  0
    1.4465   -0.5544   -2.1130 C   0  0  0  0  0  0
    1.4980    0.1177   -0.7132 C   0  0  1  0  0  0
    2.7139    1.0578   -0.4985 C   0  0  0  0  0  0
    2.8231    1.7089    0.9028 C   0  0  1  0  0  0
    3.0301    0.7012    2.0563 C   0  0  0  0  0  0
    3.0488    1.3527    3.4569 C   0  0  0  0  0  0
    1.6887   -0.1056   -4.4660 O   0  0  0  0  0  0
    0.9225    1.5947   -3.1279 O   0  0  0  0  0  0
    0.2796    0.7841   -0.4315 O   0  0  0  0  0  0
    3.9037    2.6227    0.8807 O   0  0  0  0  0  0
    3.2145    0.3378    4.5064 N   0  0  0  0  0  0
    4.4272   -0.0408    5.0589 C   0  0  0  0  0  0
    4.2031   -1.0927    5.9437 C   0  0  0  0  0  0
    2.8159   -1.3394    5.9399 C   0  0  0  0  0  0
    2.2132   -0.4879    5.0023 C   0  0  0  0  0  0
   -0.1676    0.0903    5.6905 C   0  0  0  0  0  0
    0.7501   -0.3655    4.5417 C   0  0  0  0  0  0
    0.2344   -1.6592    3.8840 C   0  0  0  0  0  0
    2.1525   -2.3648    6.6925 C   0  0  0  0  0  0
    1.6769   -2.1204    7.8009 O   0  0  0  0  0  0
    2.1456   -3.5542    6.0540 N   0  0  0  0  0  0
    1.5774   -4.7734    6.4627 C   0  0  0  0  0  0
    2.0184   -5.9134    5.7853 C   0  0  0  0  0  0
    1.5069   -7.1658    6.1140 C   0  0  0  0  0  0
    0.5464   -7.2777    7.1158 C   0  0  0  0  0  0
    0.0899   -6.1477    7.7897 C   0  0  0  0  0  0
    0.6004   -4.8937    7.4645 C   0  0  0  0  0  0
    5.2596   -1.7836    6.7475 C   0  0  0  0  0  0
    5.4568   -3.1632    6.6323 C   0  0  0  0  0  0
    6.4481   -3.7916    7.3812 C   0  0  0  0  0  0
    7.2443   -3.0389    8.2415 C   0  0  0  0  0  0
    7.0584   -1.6633    8.3590 C   0  0  0  0  0  0
    6.0657   -1.0356    7.6114 C   0  0  0  0  0  0
    5.7352    0.5908    4.7116 C   0  0  0  0  0  0
    5.9906    1.9239    5.0451 C   0  0  0  0  0  0
    7.2231    2.4938    4.7378 C   0  0  0  0  0  0
    8.2002    1.7272    4.1059 C   0  0  0  0  0  0
    7.9554    0.3945    3.7809 C   0  0  0  0  0  0
    6.7226   -0.1756    4.0871 C   0  0  0  0  0  0
    9.3976    2.2806    3.8083 F   0  0  0  0  0  0
    0.7961    2.5389   -4.1830 C   0  0  0  0  0  0
    0.3914    3.9115   -3.6163 C   0  0  0  0  0  0
   -0.9556    3.9355   -2.8642 C   0  0  0  0  0  0
   -2.1741    3.5990   -3.7448 C   0  0  0  0  0  0
   -3.5105    3.7180   -2.9906 C   0  0  0  0  0  0
   -4.7281    3.3981   -3.8765 C   0  0  0  0  0  0
   -6.0669    3.5114   -3.1217 C   0  0  0  0  0  0
   -7.3024    3.1364   -3.9633 C   0  0  0  0  0  0
   -7.5835    4.0907   -5.1342 C   0  0  0  0  0  0
    0.5873   -1.2251   -2.1457 H   0  0  0  0  0  0
    2.3224   -1.1940   -2.2250 H   0  0  0  0  0  0
    1.5662   -0.6983    0.0059 H   0  0  0  0  0  0
    3.6303    0.5040   -0.7100 H   0  0  0  0  0  0
    2.6769    1.8579   -1.2390 H   0  0  0  0  0  0
    1.9208    2.2915    1.0937 H   0  0  0  0  0  0
    2.2330   -0.0407    2.0320 H   0  0  0  0  0  0
    3.9589    0.1496    1.8979 H   0  0  0  0  0  0
    3.8505    2.0853    3.5215 H   0  0  0  0  0  0
    2.1443    1.9288    3.6510 H   0  0  0  0  0  0
    0.3356    1.1676    0.4466 H   0  0  0  0  0  0
    4.7134    2.1349    0.7128 H   0  0  0  0  0  0
    0.1799    1.0286    6.1246 H   0  0  0  0  0  0
   -0.2179   -0.6474    6.4910 H   0  0  0  0  0  0
   -1.1871    0.2509    5.3380 H   0  0  0  0  0  0
    0.6396    0.3949    3.7717 H   0  0  0  0  0  0
    0.9030   -1.9964    3.0910 H   0  0  0  0  0  0
   -0.7482   -1.5036    3.4369 H   0  0  0  0  0  0
    0.1275   -2.4716    4.6014 H   0  0  0  0  0  0
    2.6331   -3.5914    5.1710 H   0  0  0  0  0  0
    2.7637   -5.8373    5.0062 H   0  0  0  0  0  0
    1.8537   -8.0464    5.5939 H   0  0  0  0  0  0
    0.1489   -8.2492    7.3703 H   0  0  0  0  0  0
   -0.6608   -6.2427    8.5604 H   0  0  0  0  0  0
    0.2128   -4.0363    7.9916 H   0  0  0  0  0  0
    4.8516   -3.7512    5.9587 H   0  0  0  0  0  0
    6.6005   -4.8572    7.2933 H   0  0  0  0  0  0
    8.0141   -3.5263    8.8217 H   0  0  0  0  0  0
    7.6809   -1.0865    9.0270 H   0  0  0  0  0  0
    5.9230    0.0312    7.7057 H   0  0  0  0  0  0
    5.2372    2.5165    5.5438 H   0  0  0  0  0  0
    7.4215    3.5246    4.9919 H   0  0  0  0  0  0
    8.7199   -0.1951    3.2966 H   0  0  0  0  0  0
    6.5366   -1.2111    3.8407 H   0  0  0  0  0  0
    1.7479    2.6319   -4.7088 H   0  0  0  0  0  0
    0.0609    2.1922   -4.9105 H   0  0  0  0  0  0
    1.1781    4.2607   -2.9460 H   0  0  0  0  0  0
    0.3596    4.6340   -4.4326 H   0  0  0  0  0  0
   -0.9150    3.2499   -2.0164 H   0  0  0  0  0  0
   -1.0914    4.9292   -2.4348 H   0  0  0  0  0  0
   -2.1878    4.2629   -4.6107 H   0  0  0  0  0  0
   -2.0750    2.5857   -4.1360 H   0  0  0  0  0  0
   -3.5006    3.0470   -2.1302 H   0  0  0  0  0  0
   -3.6117    4.7278   -2.5899 H   0  0  0  0  0  0
   -4.7303    4.0732   -4.7329 H   0  0  0  0  0  0
   -4.6262    2.3900   -4.2812 H   0  0  0  0  0  0
   -6.0353    2.8596   -2.2474 H   0  0  0  0  0  0
   -6.1865    4.5242   -2.7338 H   0  0  0  0  0  0
   -7.1946    2.1191   -4.3416 H   0  0  0  0  0  0
   -8.1770    3.1201   -3.3117 H   0  0  0  0  0  0
   -8.5066    3.8148   -5.6448 H   0  0  0  0  0  0
   -6.7837    4.0665   -5.8743 H   0  0  0  0  0  0
   -7.6922    5.1196   -4.7898 H   0  0  0  0  0  0
  1  2  1  0  0  0
  1  8  2  0  0  0
  1  9  1  0  0  0
  2  3  1  0  0  0
  2 51  1  0  0  0
  2 52  1  0  0  0
  3  4  1  0  0  0
  3 10  1  0  0  0
  3 53  1  0  0  0
  4  5  1  0  0  0
  4 54  1  0  0  0
  4 55  1  0  0  0
  5  6  1  0  0  0
  5 11  1  0  0  0
  5 56  1  0  0  0
  6  7  1  0  0  0
  6 57  1  0  0  0
  6 58  1  0  0  0
  7 12  1  0  0  0
  7 59  1  0  0  0
  7 60  1  0  0  0
  9 42  1  0  0  0
 10 61  1  0  0  0
 11 62  1  0  0  0
 12 13  1  0  0  0
 12 16  1  0  0  0
 13 14  2  0  0  0
 13 35  1  0  0  0
 14 15  1  0  0  0
 14 29  1  0  0  0
 15 16  2  0  0  0
 15 20  1  0  0  0
 16 18  1  0  0  0
 17 18  1  0  0  0
 17 63  1  0  0  0
 17 64  1  0  0  0
 17 65  1  0  0  0
 18 19  1  0  0  0
 18 66  1  0  0  0
 19 67  1  0  0  0
 19 68  1  0  0  0
 19 69  1  0  0  0
 20 21  2  0  0  0
 20 22  1  0  0  0
 22 23  1  0  0  0
 22 70  1  0  0  0
 23 24  2  0  0  0
 23 28  1  0  0  0
 24 25  1  0  0  0
 24 71  1  0  0  0
 25 26  2  0  0  0
 25 72  1  0  0  0
 26 27  1  0  0  0
 26 73  1  0  0  0
 27 28  2  0  0  0
 27 74  1  0  0  0
 28 75  1  0  0  0
 29 30  2  0  0  0
 29 34  1  0  0  0
 30 31  1  0  0  0
 30 76  1  0  0  0
 31 32  2  0  0  0
 31 77  1  0  0  0
 32 33  1  0  0  0
 32 78  1  0  0  0
 33 34  2  0  0  0
 33 79  1  0  0  0
 34 80  1  0  0  0
 35 36  2  0  0  0
 35 40  1  0  0  0
 36 37  1  0  0  0
 36 81  1  0  0  0
 37 38  2  0  0  0
 37 82  1  0  0  0
 38 39  1  0  0  0
 38 41  1  0  0  0
 39 40  2  0  0  0
 39 83  1  0  0  0
 40 84  1  0  0  0
 42 43  1  0  0  0
 42 85  1  0  0  0
 42 86  1  0  0  0
 43 44  1  0  0  0
 43 87  1  0  0  0
 43 88  1  0  0  0
 44 45  1  0  0  0
 44 89  1  0  0  0
 44 90  1  0  0  0
 45 46  1  0  0  0
 45 91  1  0  0  0
 45 92  1  0  0  0
 46 47  1  0  0  0
 46 93  1  0  0  0
 46 94  1  0  0  0
 47 48  1  0  0  0
 47 95  1  0  0  0
 47 96  1  0  0  0
 48 49  1  0  0  0
 48 97  1  0  0  0
 48 98  1  0  0  0
 49 50  1  0  0  0
 49 99  1  0  0  0
 49100  1  0  0  0
 50101  1  0  0  0
 50102  1  0  0  0
 50103  1  0  0  0
M  END
> <s_m_entry_id>
167

> <s_m_entry_name>
entry

> <i_lp_mmshare_version>
47013

> <i_f3d_flags>
0

> <s_epik_input>
W0NIM11bQ0gyXVtDSDJdW0NIMl1bQ0gyXVtDSDJdW0NIMl1bQ0gyXVtDSDJdT0MoPU8pW0NIMl1bQ0BIXShbT0hdKVtDSDJdW0NASF0oW09IXSlbQ0gyXVtDSDJdbjFjKC1jMltjSF1bY0hdYyhGKVtjSF1bY0hdMiljKC1jM1tjSF1bY0hdW2NIXVtjSF1bY0hdMyljKGMxW0NIXShbQ0gzXSlbQ0gzXSlDKD1PKVtOSF1jNFtjSF1bY0hdW2NIXVtjSF1bY0hdNA==

> <s_epik_cmdline>
J2VwaWtfcHl0aG9uJywgJy1waCcsICc3LjQnLCAnLXRuJywgJzgnLCAnLW1hJywgJzIwMCcsICctaW1hZScsICc8aW5maWxlLm1hZT4nLCAnLW9tYWUnLCAnPG91dGZpbGUubWFlPic=

> <r_epik_Ionization_Penalty>
  0.0000

> <r_epik_Ionization_Penalty_Charging>
  0.0000

> <r_epik_Ionization_Penalty_Neutral>
  0.0000

> <r_epik_State_Penalty>
  0.0000

> <r_epik_Charging_Adjusted_Penalty>
0

> <i_epik_Tot_Q>
0

> <i_epik_Tot_abs_Q>
0

> <s_lp_Force_Field>
OPLS3e

> <r_lp_Energy>
51.213174

> <b_lp_Chiralities_Consistent>
1

> <s_lp_Variant>
329-1

> <s_m_job_name>
ligprep_43

> <s_m_Source_Path>
/home/andre/Documents/projects/Esterase/data/FINAL_STUFF/Compounds/MAE_external

> <s_m_Source_File>
167.mae

> <i_m_Source_File_Index>
1

> <r_lp_tautomer_probability>
1

> <s_epik_Chemistry_Notes>
This compound has an ester and may undergo hydrolysis at high or low pH.

$$$$
