168
                    3D
 Schrodinger Suite 2021-1.
106109  0  0  1  0            999 V2000
   -0.6524   -1.7023   -2.2324 C   0  0  0  0  0  0
   -0.7586   -0.1733   -2.3546 C   0  0  0  0  0  0
   -0.2561    0.6316   -1.1262 C   0  0  1  0  0  0
    1.2284    0.3724   -0.7516 C   0  0  0  0  0  0
    1.6895    0.9929    0.5897 C   0  0  1  0  0  0
    2.8723    0.2172    1.2106 C   0  0  0  0  0  0
    3.3585    0.7713    2.5693 C   0  0  0  0  0  0
   -0.4169   -2.4009   -3.2191 O   0  0  0  0  0  0
   -0.8002   -2.1472   -0.9657 O   0  0  0  0  0  0
   -0.4559    2.0032   -1.4010 O   0  0  0  0  0  0
    2.0449    2.3495    0.3952 O   0  0  0  0  0  0
    4.2462   -0.1858    3.2450 N   0  0  0  0  0  0
    5.6280   -0.1791    3.1688 C   0  0  0  0  0  0
    6.1201   -1.2473    3.9142 C   0  0  0  0  0  0
    5.0007   -1.9464    4.4090 C   0  0  0  0  0  0
    3.8369   -1.2697    4.0110 C   0  0  0  0  0  0
    1.9730   -3.0162    4.4005 C   0  0  0  0  0  0
    2.3472   -1.5242    4.3050 C   0  0  0  0  0  0
    1.9103   -0.7714    5.5750 C   0  0  0  0  0  0
    5.0610   -3.1021    5.2560 C   0  0  0  0  0  0
    5.2723   -4.2161    4.7778 O   0  0  0  0  0  0
    4.8661   -2.7956    6.5562 N   0  0  0  0  0  0
    4.8399   -3.6372    7.6835 C   0  0  0  0  0  0
    4.6358   -2.9988    8.9103 C   0  0  0  0  0  0
    4.5915   -3.7386   10.0888 C   0  0  0  0  0  0
    4.7510   -5.1207   10.0421 C   0  0  0  0  0  0
    4.9537   -5.7695    8.8270 C   0  0  0  0  0  0
    4.9986   -5.0329    7.6462 C   0  0  0  0  0  0
    7.5674   -1.5721    4.1168 C   0  0  0  0  0  0
    8.0862   -1.7161    5.4077 C   0  0  0  0  0  0
    9.4331   -2.0173    5.5896 C   0  0  0  0  0  0
   10.2611   -2.1723    4.4802 C   0  0  0  0  0  0
    9.7542   -2.0278    3.1908 C   0  0  0  0  0  0
    8.4070   -1.7272    3.0092 C   0  0  0  0  0  0
    6.4059    0.8615    2.4372 C   0  0  0  0  0  0
    6.4667    0.8550    1.0418 C   0  0  0  0  0  0
    7.2072    1.8276    0.3752 C   0  0  0  0  0  0
    7.8893    2.7986    1.1059 C   0  0  0  0  0  0
    7.8408    2.8020    2.4985 C   0  0  0  0  0  0
    7.1010    1.8295    3.1658 C   0  0  0  0  0  0
    8.6078    3.7431    0.4579 F   0  0  0  0  0  0
   -0.4887   -3.4879   -0.6167 C   0  0  0  0  0  0
   -0.4441   -3.5879    0.9176 C   0  0  0  0  0  0
    0.1972   -4.8823    1.4502 C   0  0  0  0  0  0
    1.7035   -4.9992    1.1385 C   0  0  0  0  0  0
    2.4035   -6.1154    1.9385 C   0  0  0  0  0  0
    3.9402   -6.1103    1.8172 C   0  0  0  0  0  0
    4.4662   -6.4027    0.3990 C   0  0  0  0  0  0
    6.0020   -6.4799    0.3357 C   0  0  0  0  0  0
    6.5302   -6.7663   -1.0809 C   0  0  0  0  0  0
    8.0609   -6.8565   -1.1418 C   0  0  0  0  0  0
   -0.2037    0.1321   -3.2427 H   0  0  0  0  0  0
   -1.8042    0.0686   -2.5473 H   0  0  0  0  0  0
   -0.8884    0.3879   -0.2706 H   0  0  0  0  0  0
    1.3728   -0.7048   -0.6742 H   0  0  0  0  0  0
    1.8898    0.6797   -1.5643 H   0  0  0  0  0  0
    0.8620    0.9610    1.3006 H   0  0  0  0  0  0
    2.5717   -0.8247    1.3327 H   0  0  0  0  0  0
    3.7024    0.2034    0.5051 H   0  0  0  0  0  0
    3.8735    1.7235    2.4372 H   0  0  0  0  0  0
    2.5204    0.9933    3.2294 H   0  0  0  0  0  0
   -0.2749    2.5044   -0.6030 H   0  0  0  0  0  0
    1.3293    2.7937   -0.0650 H   0  0  0  0  0  0
    2.4111   -3.5864    3.5836 H   0  0  0  0  0  0
    0.8919   -3.1517    4.3539 H   0  0  0  0  0  0
    2.3058   -3.4678    5.3350 H   0  0  0  0  0  0
    1.7352   -1.1418    3.4887 H   0  0  0  0  0  0
    2.0772    0.3022    5.4838 H   0  0  0  0  0  0
    2.4600   -1.1157    6.4518 H   0  0  0  0  0  0
    0.8490   -0.9209    5.7773 H   0  0  0  0  0  0
    4.7128   -1.8195    6.7620 H   0  0  0  0  0  0
    4.5107   -1.9262    8.9585 H   0  0  0  0  0  0
    4.4340   -3.2425   11.0350 H   0  0  0  0  0  0
    4.7171   -5.6949   10.9564 H   0  0  0  0  0  0
    5.0760   -6.8423    8.8000 H   0  0  0  0  0  0
    5.1559   -5.5724    6.7268 H   0  0  0  0  0  0
    7.4504   -1.5911    6.2720 H   0  0  0  0  0  0
    9.8333   -2.1293    6.5864 H   0  0  0  0  0  0
   11.3059   -2.4072    4.6213 H   0  0  0  0  0  0
   10.4023   -2.1501    2.3356 H   0  0  0  0  0  0
    8.0168   -1.6208    2.0074 H   0  0  0  0  0  0
    5.9535    0.0935    0.4739 H   0  0  0  0  0  0
    7.2559    1.8268   -0.7036 H   0  0  0  0  0  0
    8.3758    3.5544    3.0588 H   0  0  0  0  0  0
    7.0672    1.8305    4.2459 H   0  0  0  0  0  0
   -1.2277   -4.1745   -1.0319 H   0  0  0  0  0  0
    0.4826   -3.7519   -1.0373 H   0  0  0  0  0  0
    0.1049   -2.7372    1.3267 H   0  0  0  0  0  0
   -1.4595   -3.5013    1.3067 H   0  0  0  0  0  0
    0.0531   -4.9063    2.5314 H   0  0  0  0  0  0
   -0.3321   -5.7523    1.0588 H   0  0  0  0  0  0
    1.8400   -5.1759    0.0716 H   0  0  0  0  0  0
    2.1924   -4.0471    1.3488 H   0  0  0  0  0  0
    2.1498   -6.0109    2.9945 H   0  0  0  0  0  0
    2.0120   -7.0868    1.6336 H   0  0  0  0  0  0
    4.3275   -5.1493    2.1603 H   0  0  0  0  0  0
    4.3425   -6.8543    2.5064 H   0  0  0  0  0  0
    4.0417   -7.3424    0.0424 H   0  0  0  0  0  0
    4.1207   -5.6288   -0.2874 H   0  0  0  0  0  0
    6.4266   -5.5420    0.6979 H   0  0  0  0  0  0
    6.3533   -7.2570    1.0166 H   0  0  0  0  0  0
    6.1030   -7.7000   -1.4497 H   0  0  0  0  0  0
    6.1918   -5.9852   -1.7630 H   0  0  0  0  0  0
    8.3982   -7.0602   -2.1583 H   0  0  0  0  0  0
    8.4364   -7.6564   -0.5026 H   0  0  0  0  0  0
    8.5254   -5.9239   -0.8195 H   0  0  0  0  0  0
  1  2  1  0  0  0
  1  9  1  0  0  0
  1  8  2  0  0  0
  2  3  1  0  0  0
  2 52  1  0  0  0
  2 53  1  0  0  0
  3  4  1  0  0  0
  3 10  1  0  0  0
  3 54  1  0  0  0
  4  5  1  0  0  0
  4 55  1  0  0  0
  4 56  1  0  0  0
  5  6  1  0  0  0
  5 11  1  0  0  0
  5 57  1  0  0  0
  6  7  1  0  0  0
  6 58  1  0  0  0
  6 59  1  0  0  0
  7 12  1  0  0  0
  7 60  1  0  0  0
  7 61  1  0  0  0
  9 42  1  0  0  0
 10 62  1  0  0  0
 11 63  1  0  0  0
 12 13  1  0  0  0
 12 16  1  0  0  0
 13 14  2  0  0  0
 13 35  1  0  0  0
 14 15  1  0  0  0
 14 29  1  0  0  0
 15 16  2  0  0  0
 15 20  1  0  0  0
 16 18  1  0  0  0
 17 18  1  0  0  0
 17 64  1  0  0  0
 17 65  1  0  0  0
 17 66  1  0  0  0
 18 19  1  0  0  0
 18 67  1  0  0  0
 19 68  1  0  0  0
 19 69  1  0  0  0
 19 70  1  0  0  0
 20 21  2  0  0  0
 20 22  1  0  0  0
 22 23  1  0  0  0
 22 71  1  0  0  0
 23 24  2  0  0  0
 23 28  1  0  0  0
 24 25  1  0  0  0
 24 72  1  0  0  0
 25 26  2  0  0  0
 25 73  1  0  0  0
 26 27  1  0  0  0
 26 74  1  0  0  0
 27 28  2  0  0  0
 27 75  1  0  0  0
 28 76  1  0  0  0
 29 30  2  0  0  0
 29 34  1  0  0  0
 30 31  1  0  0  0
 30 77  1  0  0  0
 31 32  2  0  0  0
 31 78  1  0  0  0
 32 33  1  0  0  0
 32 79  1  0  0  0
 33 34  2  0  0  0
 33 80  1  0  0  0
 34 81  1  0  0  0
 35 36  2  0  0  0
 35 40  1  0  0  0
 36 37  1  0  0  0
 36 82  1  0  0  0
 37 38  2  0  0  0
 37 83  1  0  0  0
 38 39  1  0  0  0
 38 41  1  0  0  0
 39 40  2  0  0  0
 39 84  1  0  0  0
 40 85  1  0  0  0
 42 43  1  0  0  0
 42 86  1  0  0  0
 42 87  1  0  0  0
 43 44  1  0  0  0
 43 88  1  0  0  0
 43 89  1  0  0  0
 44 45  1  0  0  0
 44 90  1  0  0  0
 44 91  1  0  0  0
 45 46  1  0  0  0
 45 92  1  0  0  0
 45 93  1  0  0  0
 46 47  1  0  0  0
 46 94  1  0  0  0
 46 95  1  0  0  0
 47 48  1  0  0  0
 47 96  1  0  0  0
 47 97  1  0  0  0
 48 49  1  0  0  0
 48 98  1  0  0  0
 48 99  1  0  0  0
 49 50  1  0  0  0
 49100  1  0  0  0
 49101  1  0  0  0
 50 51  1  0  0  0
 50102  1  0  0  0
 50103  1  0  0  0
 51104  1  0  0  0
 51105  1  0  0  0
 51106  1  0  0  0
M  END
> <s_m_entry_id>
168

> <s_m_entry_name>
330.1

> <i_lp_mmshare_version>
47013

> <i_f3d_flags>
0

> <s_epik_input>
W0NIM11bQ0gyXVtDSDJdW0NIMl1bQ0gyXVtDSDJdW0NIMl1bQ0gyXVtDSDJdW0NIMl1PQyg9TylbQ0gyXVtDQEhdKFtPSF0pW0NIMl1bQ0BIXShbT0hdKVtDSDJdW0NIMl1uMWMoLWMyW2NIXVtjSF1jKEYpW2NIXVtjSF0yKWMoLWMzW2NIXVtjSF1bY0hdW2NIXVtjSF0zKWMoYzFbQ0hdKFtDSDNdKVtDSDNdKUMoPU8pW05IXWM0W2NIXVtjSF1bY0hdW2NIXVtjSF00

> <s_epik_cmdline>
J2VwaWtfcHl0aG9uJywgJy1waCcsICc3LjQnLCAnLXRuJywgJzgnLCAnLW1hJywgJzIwMCcsICctaW1hZScsICc8aW5maWxlLm1hZT4nLCAnLW9tYWUnLCAnPG91dGZpbGUubWFlPic=

> <r_epik_Ionization_Penalty>
  0.0000

> <r_epik_Ionization_Penalty_Charging>
  0.0000

> <r_epik_Ionization_Penalty_Neutral>
  0.0000

> <r_epik_State_Penalty>
  0.0000

> <r_epik_Charging_Adjusted_Penalty>
0

> <i_epik_Tot_Q>
0

> <i_epik_Tot_abs_Q>
0

> <s_lp_Force_Field>
OPLS3e

> <r_lp_Energy>
51.478527

> <b_lp_Chiralities_Consistent>
1

> <s_lp_Variant>
decyl (3R,5R)7[2(4fluorophenyl)3phenyl4 (phenylcarbamoyl)5(propan2yl)1Hpyrrol1yl] 3,5dihydroxyheptanoate-1

> <s_m_job_name>
ligprep_44

> <s_m_Source_Path>
/home/andre/Documents/projects/Esterase/data/FINAL_STUFF/Compounds/MAE_external

> <s_m_Source_File>
168.mae

> <i_m_Source_File_Index>
1

> <r_lp_tautomer_probability>
1

> <s_epik_Chemistry_Notes>
This compound has an ester and may undergo hydrolysis at high or low pH.

$$$$
