17
                    3D
 Schrodinger Suite 2021-1.
 47 49  0  0  1  0            999 V2000
   -3.3771   -0.0073    3.0801 C   0  0  0  0  0  0
   -2.3860    1.0052    2.4770 C   0  0  0  0  0  0
   -2.7371    1.6001    1.1405 C   0  0  2  0  0  0
   -1.6327    0.5153    1.2422 C   0  0  1  0  0  0
   -0.1447    0.8295    0.9761 C   0  0  0  0  0  0
    0.3917    1.8980    1.2731 O   0  0  0  0  0  0
    0.4793   -0.2180    0.3864 O   0  0  0  0  0  0
    1.8462   -0.1616   -0.0283 C   0  0  2  0  0  0
    2.1459    0.9555   -0.9495 C   0  0  0  0  0  0
    2.3803    1.8297   -1.6708 N   0  0  0  0  0  0
    2.2248   -1.5041   -0.6386 C   0  0  0  0  0  0
    3.0323   -2.3923    0.0787 C   0  0  0  0  0  0
    3.3966   -3.6306   -0.4705 C   0  0  0  0  0  0
    2.9149   -3.9845   -1.7324 C   0  0  0  0  0  0
    2.1035   -3.1071   -2.4508 C   0  0  0  0  0  0
    1.7609   -1.8697   -1.9072 C   0  0  0  0  0  0
    4.1780   -4.5422    0.2085 O   0  0  0  0  0  0
    5.2435   -4.1329    0.9824 C   0  0  0  0  0  0
    6.1398   -3.1452    0.5522 C   0  0  0  0  0  0
    7.2136   -2.7792    1.3594 C   0  0  0  0  0  0
    7.3975   -3.4077    2.5890 C   0  0  0  0  0  0
    6.5207   -4.4026    3.0160 C   0  0  0  0  0  0
    5.4464   -4.7679    2.2087 C   0  0  0  0  0  0
   -2.4250    3.0592    0.8182 C   0  0  0  0  0  0
   -3.1732    3.8645    0.0457 C   0  0  0  0  0  0
   -2.6627    5.7388   -0.2941 Br  0  0  0  0  0  0
   -4.8489    3.3045   -0.8416 Br  0  0  0  0  0  0
   -1.6895    1.8449    3.5767 C   0  0  0  0  0  0
   -4.1642    0.5013    3.6377 H   0  0  0  0  0  0
   -2.8717   -0.6923    3.7616 H   0  0  0  0  0  0
   -3.8638   -0.6140    2.3151 H   0  0  0  0  0  0
   -3.6724    1.2462    0.7061 H   0  0  0  0  0  0
   -1.8905   -0.4773    0.8707 H   0  0  0  0  0  0
    2.4634   -0.0008    0.8573 H   0  0  0  0  0  0
    3.3799   -2.1216    1.0653 H   0  0  0  0  0  0
    3.1741   -4.9425   -2.1589 H   0  0  0  0  0  0
    1.7386   -3.3871   -3.4280 H   0  0  0  0  0  0
    1.1298   -1.1980   -2.4709 H   0  0  0  0  0  0
    6.0046   -2.6627   -0.4046 H   0  0  0  0  0  0
    7.9021   -2.0143    1.0319 H   0  0  0  0  0  0
    8.2312   -3.1248    3.2148 H   0  0  0  0  0  0
    6.6742   -4.8890    3.9680 H   0  0  0  0  0  0
    4.7674   -5.5413    2.5364 H   0  0  0  0  0  0
   -1.5321    3.4829    1.2489 H   0  0  0  0  0  0
   -0.9981    2.5950    3.2009 H   0  0  0  0  0  0
   -1.1247    1.2024    4.2526 H   0  0  0  0  0  0
   -2.4286    2.3804    4.1730 H   0  0  0  0  0  0
  1  2  1  0  0  0
  1 29  1  0  0  0
  1 30  1  0  0  0
  1 31  1  0  0  0
  2  4  1  0  0  0
  2  3  1  0  0  0
  2 28  1  0  0  0
  3  4  1  0  0  0
  3 24  1  0  0  0
  3 32  1  0  0  0
  4  5  1  0  0  0
  4 33  1  0  0  0
  5  6  2  0  0  0
  5  7  1  0  0  0
  7  8  1  0  0  0
  8  9  1  0  0  0
  8 11  1  0  0  0
  8 34  1  0  0  0
  9 10  3  0  0  0
 11 16  1  0  0  0
 11 12  2  0  0  0
 12 13  1  0  0  0
 12 35  1  0  0  0
 13 14  2  0  0  0
 13 17  1  0  0  0
 14 15  1  0  0  0
 14 36  1  0  0  0
 15 16  2  0  0  0
 15 37  1  0  0  0
 16 38  1  0  0  0
 17 18  1  0  0  0
 18 23  1  0  0  0
 18 19  2  0  0  0
 19 20  1  0  0  0
 19 39  1  0  0  0
 20 21  2  0  0  0
 20 40  1  0  0  0
 21 22  1  0  0  0
 21 41  1  0  0  0
 22 23  2  0  0  0
 22 42  1  0  0  0
 23 43  1  0  0  0
 24 25  2  0  0  0
 24 44  1  0  0  0
 25 26  1  0  0  0
 25 27  1  0  0  0
 28 45  1  0  0  0
 28 46  1  0  0  0
 28 47  1  0  0  0
M  END
> <s_m_entry_id>
17

> <s_m_entry_name>
entry

> <i_lp_mmshare_version>
47013

> <i_f3d_flags>
0

> <s_epik_input>
QnJDKEJyKT1bQ0hdW0NASF0oQzEoW0NIM10pW0NIM10pW0NASF0xQyg9TylPW0NASF0oQyNOKWMyW2NIXWMoW2NIXVtjSF1bY0hdMilPYzNbY0hdW2NIXVtjSF1bY0hdW2NIXTM=

> <s_epik_cmdline>
J2VwaWtfcHl0aG9uJywgJy1waCcsICc3LjQnLCAnLXRuJywgJzgnLCAnLW1hJywgJzIwMCcsICctaW1hZScsICc8aW5maWxlLm1hZT4nLCAnLW9tYWUnLCAnPG91dGZpbGUubWFlPic=

> <r_epik_Ionization_Penalty>
  0.0000

> <r_epik_Ionization_Penalty_Charging>
  0.0000

> <r_epik_Ionization_Penalty_Neutral>
  0.0000

> <r_epik_State_Penalty>
  0.0000

> <r_epik_Charging_Adjusted_Penalty>
0

> <i_epik_Tot_Q>
0

> <i_epik_Tot_abs_Q>
0

> <s_lp_Force_Field>
OPLS3e

> <r_lp_Energy>
41.739728

> <b_lp_Chiralities_Consistent>
1

> <s_lp_Variant>
CE1_40585-1

> <s_m_job_name>
ligprep_83

> <s_m_Source_Path>
/home/andre/Documents/projects/Esterase/data/FINAL_STUFF/Compounds/MAE_external

> <s_m_Source_File>
17.mae

> <i_m_Source_File_Index>
1

> <r_lp_tautomer_probability>
1

> <s_epik_Chemistry_Notes>
This compound has an ester and may undergo hydrolysis at high or low pH.

$$$$
