170
                    3D
 Schrodinger Suite 2021-1.
 92 96  0  0  1  0            999 V2000
   -0.6631    6.6144    2.1783 C   0  0  0  0  0  0
   -0.2729    5.1471    2.3889 C   0  0  0  0  0  0
   -1.0483    4.1351    1.5090 C   0  0  1  0  0  0
   -0.5367    2.6916    1.7298 C   0  0  0  0  0  0
   -1.0202    1.6277    0.7074 C   0  0  1  0  0  0
   -0.3540    0.2466    0.9075 C   0  0  0  0  0  0
    1.1263    0.1816    0.4672 C   0  0  0  0  0  0
   -1.1002    7.2960    3.1067 O   0  0  0  0  0  0
   -0.4734    7.0279    0.9031 O   0  0  0  0  0  0
   -2.4349    4.2134    1.7914 O   0  0  0  0  0  0
   -2.4192    1.4479    0.8135 O   0  0  0  0  0  0
    1.8946   -0.7962    1.2557 N   0  0  0  0  0  0
    2.5783   -0.4638    2.4172 C   0  0  0  0  0  0
    3.1490   -1.6108    2.9552 C   0  0  0  0  0  0
    2.8012   -2.6663    2.0946 C   0  0  0  0  0  0
    1.9652   -2.1791    1.0790 C   0  0  0  0  0  0
   -0.1415   -3.4678    0.4479 C   0  0  0  0  0  0
    1.2532   -3.0037   -0.0130 C   0  0  0  0  0  0
    1.2301   -2.4089   -1.4330 C   0  0  0  0  0  0
    3.1427   -4.0465    2.2943 C   0  0  0  0  0  0
    4.2176   -4.4894    1.8918 O   0  0  0  0  0  0
    2.1752   -4.7257    2.9464 N   0  0  0  0  0  0
    2.1239   -6.0830    3.3123 C   0  0  0  0  0  0
    1.0574   -6.4482    4.1388 C   0  0  0  0  0  0
    0.9111   -7.7688    4.5544 C   0  0  0  0  0  0
    1.8301   -8.7286    4.1389 C   0  0  0  0  0  0
    2.8934   -8.3796    3.3102 C   0  0  0  0  0  0
    3.0437   -7.0591    2.8938 C   0  0  0  0  0  0
    3.9734   -1.6698    4.2033 C   0  0  0  0  0  0
    3.6192   -2.5265    5.2505 C   0  0  0  0  0  0
    4.3919   -2.5710    6.4079 C   0  0  0  0  0  0
    5.5166   -1.7566    6.5182 C   0  0  0  0  0  0
    5.8754   -0.8978    5.4818 C   0  0  0  0  0  0
    5.1028   -0.8541    4.3244 C   0  0  0  0  0  0
    2.6291    0.9183    2.9800 C   0  0  0  0  0  0
    3.4033    1.9077    2.3680 C   0  0  0  0  0  0
    3.4313    3.1943    2.8995 C   0  0  0  0  0  0
    2.6938    3.4847    4.0456 C   0  0  0  0  0  0
    1.9341    2.4970    4.6691 C   0  0  0  0  0  0
    1.9050    1.2102    4.1384 C   0  0  0  0  0  0
    2.7148    4.7363    4.5567 F   0  0  0  0  0  0
   -0.8219    8.3457    0.4821 C   0  0  0  0  0  0
   -2.3388    8.4828    0.2055 C   0  0  0  0  0  0
   -2.6842    9.9183   -0.2400 C   0  0  0  0  0  0
   -1.8471   10.3579   -1.4598 C   0  0  0  0  0  0
   -0.3341   10.1494   -1.2368 C   0  0  0  0  0  0
   -0.0122    8.7116   -0.7794 C   0  0  0  0  0  0
    0.7969    5.0597    2.1978 H   0  0  0  0  0  0
   -0.4078    4.8967    3.4419 H   0  0  0  0  0  0
   -0.9071    4.3941    0.4582 H   0  0  0  0  0  0
    0.5506    2.7313    1.6923 H   0  0  0  0  0  0
   -0.7758    2.3669    2.7444 H   0  0  0  0  0  0
   -0.8164    1.9756   -0.3065 H   0  0  0  0  0  0
   -0.4657   -0.0535    1.9517 H   0  0  0  0  0  0
   -0.8982   -0.4940    0.3223 H   0  0  0  0  0  0
    1.2442    0.0039   -0.5960 H   0  0  0  0  0  0
    1.5992    1.1515    0.5917 H   0  0  0  0  0  0
   -2.5724    3.9868    2.7139 H   0  0  0  0  0  0
   -2.6246    1.1626    1.7066 H   0  0  0  0  0  0
   -0.0722   -4.1235    1.3161 H   0  0  0  0  0  0
   -0.6526   -4.0270   -0.3367 H   0  0  0  0  0  0
   -0.7847   -2.6360    0.7252 H   0  0  0  0  0  0
    1.8223   -3.9270   -0.1306 H   0  0  0  0  0  0
    2.1759   -1.9284   -1.6861 H   0  0  0  0  0  0
    0.4188   -1.6946   -1.5684 H   0  0  0  0  0  0
    1.0610   -3.1935   -2.1716 H   0  0  0  0  0  0
    1.3691   -4.1878    3.2284 H   0  0  0  0  0  0
    0.3379   -5.7113    4.4669 H   0  0  0  0  0  0
    0.0875   -8.0472    5.1951 H   0  0  0  0  0  0
    1.7160   -9.7535    4.4599 H   0  0  0  0  0  0
    3.5986   -9.1314    2.9879 H   0  0  0  0  0  0
    3.8724   -6.8294    2.2438 H   0  0  0  0  0  0
    2.7441   -3.1548    5.1748 H   0  0  0  0  0  0
    4.1196   -3.2330    7.2166 H   0  0  0  0  0  0
    6.1160   -1.7910    7.4159 H   0  0  0  0  0  0
    6.7490   -0.2697    5.5746 H   0  0  0  0  0  0
    5.3863   -0.1889    3.5217 H   0  0  0  0  0  0
    3.9747    1.6820    1.4793 H   0  0  0  0  0  0
    4.0212    3.9640    2.4240 H   0  0  0  0  0  0
    1.3683    2.7287    5.5594 H   0  0  0  0  0  0
    1.3138    0.4454    4.6209 H   0  0  0  0  0  0
   -0.5424    9.0502    1.2687 H   0  0  0  0  0  0
   -2.6372    7.7979   -0.5902 H   0  0  0  0  0  0
   -2.9188    8.2414    1.0969 H   0  0  0  0  0  0
   -3.7469    9.9888   -0.4748 H   0  0  0  0  0  0
   -2.5098   10.6076    0.5877 H   0  0  0  0  0  0
   -2.1630    9.7887   -2.3355 H   0  0  0  0  0  0
   -2.0477   11.4048   -1.6907 H   0  0  0  0  0  0
    0.2103   10.3787   -2.1538 H   0  0  0  0  0  0
    0.0226   10.8577   -0.4870 H   0  0  0  0  0  0
    1.0575    8.6350   -0.5804 H   0  0  0  0  0  0
   -0.2585    8.0302   -1.5959 H   0  0  0  0  0  0
  1  2  1  0  0  0
  1  9  1  0  0  0
  1  8  2  0  0  0
  2  3  1  0  0  0
  2 48  1  0  0  0
  2 49  1  0  0  0
  3  4  1  0  0  0
  3 10  1  0  0  0
  3 50  1  0  0  0
  4  5  1  0  0  0
  4 51  1  0  0  0
  4 52  1  0  0  0
  5  6  1  0  0  0
  5 11  1  0  0  0
  5 53  1  0  0  0
  6  7  1  0  0  0
  6 54  1  0  0  0
  6 55  1  0  0  0
  7 12  1  0  0  0
  7 56  1  0  0  0
  7 57  1  0  0  0
  9 42  1  0  0  0
 10 58  1  0  0  0
 11 59  1  0  0  0
 12 13  1  0  0  0
 12 16  1  0  0  0
 13 14  2  0  0  0
 13 35  1  0  0  0
 14 15  1  0  0  0
 14 29  1  0  0  0
 15 16  2  0  0  0
 15 20  1  0  0  0
 16 18  1  0  0  0
 17 18  1  0  0  0
 17 60  1  0  0  0
 17 61  1  0  0  0
 17 62  1  0  0  0
 18 19  1  0  0  0
 18 63  1  0  0  0
 19 64  1  0  0  0
 19 65  1  0  0  0
 19 66  1  0  0  0
 20 21  2  0  0  0
 20 22  1  0  0  0
 22 23  1  0  0  0
 22 67  1  0  0  0
 23 24  2  0  0  0
 23 28  1  0  0  0
 24 25  1  0  0  0
 24 68  1  0  0  0
 25 26  2  0  0  0
 25 69  1  0  0  0
 26 27  1  0  0  0
 26 70  1  0  0  0
 27 28  2  0  0  0
 27 71  1  0  0  0
 28 72  1  0  0  0
 29 30  2  0  0  0
 29 34  1  0  0  0
 30 31  1  0  0  0
 30 73  1  0  0  0
 31 32  2  0  0  0
 31 74  1  0  0  0
 32 33  1  0  0  0
 32 75  1  0  0  0
 33 34  2  0  0  0
 33 76  1  0  0  0
 34 77  1  0  0  0
 35 36  2  0  0  0
 35 40  1  0  0  0
 36 37  1  0  0  0
 36 78  1  0  0  0
 37 38  2  0  0  0
 37 79  1  0  0  0
 38 39  1  0  0  0
 38 41  1  0  0  0
 39 40  2  0  0  0
 39 80  1  0  0  0
 40 81  1  0  0  0
 42 43  1  0  0  0
 42 47  1  0  0  0
 42 82  1  0  0  0
 43 44  1  0  0  0
 43 83  1  0  0  0
 43 84  1  0  0  0
 44 45  1  0  0  0
 44 85  1  0  0  0
 44 86  1  0  0  0
 45 46  1  0  0  0
 45 87  1  0  0  0
 45 88  1  0  0  0
 46 47  1  0  0  0
 46 89  1  0  0  0
 46 90  1  0  0  0
 47 91  1  0  0  0
 47 92  1  0  0  0
M  END
> <s_m_entry_id>
170

> <s_m_entry_name>
332.1

> <i_lp_mmshare_version>
47013

> <i_f3d_flags>
0

> <s_epik_input>
W0NIMl0xW0NIMl1bQ0gyXVtDSDJdW0NIMl1bQ0hdMU9DKD1PKVtDSDJdW0NASF0oW09IXSlbQ0gyXVtDQEhdKFtPSF0pW0NIMl1bQ0gyXW4yYygtYzNbY0hdW2NIXWMoRilbY0hdW2NIXTMpYygtYzRbY0hdW2NIXVtjSF1bY0hdW2NIXTQpYyhjMltDSF0oW0NIM10pW0NIM10pQyg9TylbTkhdYzVbY0hdW2NIXVtjSF1bY0hdW2NIXTU=

> <s_epik_cmdline>
J2VwaWtfcHl0aG9uJywgJy1waCcsICc3LjQnLCAnLXRuJywgJzgnLCAnLW1hJywgJzIwMCcsICctaW1hZScsICc8aW5maWxlLm1hZT4nLCAnLW9tYWUnLCAnPG91dGZpbGUubWFlPic=

> <r_epik_Ionization_Penalty>
  0.0000

> <r_epik_Ionization_Penalty_Charging>
  0.0000

> <r_epik_Ionization_Penalty_Neutral>
  0.0000

> <r_epik_State_Penalty>
  0.0000

> <r_epik_Charging_Adjusted_Penalty>
0

> <i_epik_Tot_Q>
0

> <i_epik_Tot_abs_Q>
0

> <s_lp_Force_Field>
OPLS3e

> <r_lp_Energy>
53.226583

> <b_lp_Chiralities_Consistent>
1

> <s_lp_Variant>
332-1

> <s_m_job_name>
ligprep_46

> <s_m_Source_Path>
/home/andre/Documents/projects/Esterase/data/FINAL_STUFF/Compounds/MAE_external

> <s_m_Source_File>
170.mae

> <i_m_Source_File_Index>
1

> <r_lp_tautomer_probability>
1

> <s_epik_Chemistry_Notes>
This compound has an ester and may undergo hydrolysis at high or low pH.

$$$$
