172
                    3D
 Schrodinger Suite 2021-1.
 91 94  0  0  1  0            999 V2000
   -2.7129   -1.7313   -2.9007 C   0  0  0  0  0  0
   -2.0318   -0.6198   -3.7052 C   0  0  0  0  0  0
   -1.3157    0.4251   -2.8172 C   0  0  1  0  0  0
   -0.0271   -0.1063   -2.1366 C   0  0  0  0  0  0
    0.5630    0.7876   -1.0217 C   0  0  1  0  0  0
    1.6797    0.0645   -0.2386 C   0  0  0  0  0  0
    2.1351    0.8108    1.0326 C   0  0  0  0  0  0
   -3.8787   -1.6208   -2.5181 O   0  0  0  0  0  0
   -1.8917   -2.7747   -2.6638 O   0  0  0  0  0  0
   -1.0047    1.5349   -3.6350 O   0  0  0  0  0  0
    1.0686    1.9956   -1.5585 O   0  0  0  0  0  0
    3.1294    0.0214    1.7714 N   0  0  0  0  0  0
    2.8274   -1.0034    2.6529 C   0  0  0  0  0  0
    4.0179   -1.5759    3.0917 C   0  0  0  0  0  0
    5.0642   -0.8742    2.4602 C   0  0  0  0  0  0
    4.5034    0.0580    1.5738 C   0  0  0  0  0  0
    5.5885    2.3257    1.3009 C   0  0  0  0  0  0
    5.1453    1.0410    0.5795 C   0  0  0  0  0  0
    6.3002    0.4331   -0.2406 C   0  0  0  0  0  0
    6.4627   -1.1438    2.6267 C   0  0  0  0  0  0
    7.1292   -0.5025    3.4378 O   0  0  0  0  0  0
    6.8982   -2.1351    1.8199 N   0  0  0  0  0  0
    8.1905   -2.6740    1.6843 C   0  0  0  0  0  0
    8.2843   -3.8434    0.9249 C   0  0  0  0  0  0
    9.5191   -4.4549    0.7268 C   0  0  0  0  0  0
   10.6645   -3.8933    1.2847 C   0  0  0  0  0  0
   10.5862   -2.7238    2.0362 C   0  0  0  0  0  0
    9.3525   -2.1099    2.2370 C   0  0  0  0  0  0
    4.1206   -2.7015    4.0716 C   0  0  0  0  0  0
    4.7532   -3.8982    3.7213 C   0  0  0  0  0  0
    4.8336   -4.9398    4.6418 C   0  0  0  0  0  0
    4.2777   -4.7847    5.9097 C   0  0  0  0  0  0
    3.6409   -3.5978    6.2651 C   0  0  0  0  0  0
    3.5617   -2.5561    5.3449 C   0  0  0  0  0  0
    1.4351   -1.4067    3.0132 C   0  0  0  0  0  0
    0.5970   -0.5386    3.7182 C   0  0  0  0  0  0
   -0.6946   -0.9375    4.0517 C   0  0  0  0  0  0
   -1.1419   -2.2063    3.6882 C   0  0  0  0  0  0
   -0.3061   -3.0815    2.9979 C   0  0  0  0  0  0
    0.9850   -2.6826    2.6631 C   0  0  0  0  0  0
   -2.3967   -2.5927    4.0111 F   0  0  0  0  0  0
   -2.3102   -3.8610   -1.8427 C   0  0  0  0  0  0
   -1.1378   -4.8209   -1.5152 C   0  0  0  0  0  0
   -0.5951   -5.4659   -2.8107 C   0  0  0  0  0  0
   -1.6634   -5.9321   -0.5802 C   0  0  0  0  0  0
    0.0004   -4.0589   -0.7963 C   0  0  0  0  0  0
   -1.3258   -1.0649   -4.4076 H   0  0  0  0  0  0
   -2.7987   -0.1303   -4.3075 H   0  0  0  0  0  0
   -2.0107    0.7786   -2.0530 H   0  0  0  0  0  0
   -0.2602   -1.0633   -1.6731 H   0  0  0  0  0  0
    0.7321   -0.3264   -2.8897 H   0  0  0  0  0  0
   -0.2384    1.0412   -0.3257 H   0  0  0  0  0  0
    1.3177   -0.9227    0.0543 H   0  0  0  0  0  0
    2.5345   -0.1148   -0.8933 H   0  0  0  0  0  0
    2.5333    1.8010    0.8132 H   0  0  0  0  0  0
    1.2803    1.0051    1.6781 H   0  0  0  0  0  0
   -0.5570    2.1915   -3.0955 H   0  0  0  0  0  0
    1.7753    1.7842   -2.1732 H   0  0  0  0  0  0
    4.7470    2.8156    1.7922 H   0  0  0  0  0  0
    6.0226    3.0426    0.6029 H   0  0  0  0  0  0
    6.3399    2.1150    2.0633 H   0  0  0  0  0  0
    4.4207    1.3409   -0.1763 H   0  0  0  0  0  0
    6.0142   -0.5207   -0.6854 H   0  0  0  0  0  0
    7.1954    0.2734    0.3598 H   0  0  0  0  0  0
    6.5887    1.0981   -1.0554 H   0  0  0  0  0  0
    6.2001   -2.5728    1.2371 H   0  0  0  0  0  0
    7.4015   -4.2880    0.4875 H   0  0  0  0  0  0
    9.5884   -5.3610    0.1430 H   0  0  0  0  0  0
   11.6226   -4.3677    1.1310 H   0  0  0  0  0  0
   11.4807   -2.2919    2.4607 H   0  0  0  0  0  0
    9.3323   -1.1993    2.8135 H   0  0  0  0  0  0
    5.1751   -4.0294    2.7360 H   0  0  0  0  0  0
    5.3228   -5.8643    4.3729 H   0  0  0  0  0  0
    4.3393   -5.5931    6.6235 H   0  0  0  0  0  0
    3.2105   -3.4856    7.2493 H   0  0  0  0  0  0
    3.0671   -1.6366    5.6233 H   0  0  0  0  0  0
    0.9447    0.4424    4.0082 H   0  0  0  0  0  0
   -1.3459   -0.2665    4.5920 H   0  0  0  0  0  0
   -0.6576   -4.0649    2.7222 H   0  0  0  0  0  0
    1.6318   -3.3632    2.1281 H   0  0  0  0  0  0
   -2.7285   -3.4715   -0.9120 H   0  0  0  0  0  0
   -3.1117   -4.4032   -2.3474 H   0  0  0  0  0  0
    0.2057   -6.1757   -2.5994 H   0  0  0  0  0  0
   -0.1911   -4.7190   -3.4953 H   0  0  0  0  0  0
   -1.3768   -6.0070   -3.3456 H   0  0  0  0  0  0
   -2.4724   -6.4979   -1.0448 H   0  0  0  0  0  0
   -2.0494   -5.5205    0.3538 H   0  0  0  0  0  0
   -0.8781   -6.6436   -0.3202 H   0  0  0  0  0  0
    0.7856   -4.7353   -0.4553 H   0  0  0  0  0  0
   -0.3697   -3.5208    0.0769 H   0  0  0  0  0  0
    0.4733   -3.3266   -1.4515 H   0  0  0  0  0  0
  1  2  1  0  0  0
  1  9  1  0  0  0
  1  8  2  0  0  0
  2  3  1  0  0  0
  2 47  1  0  0  0
  2 48  1  0  0  0
  3  4  1  0  0  0
  3 10  1  0  0  0
  3 49  1  0  0  0
  4  5  1  0  0  0
  4 50  1  0  0  0
  4 51  1  0  0  0
  5  6  1  0  0  0
  5 11  1  0  0  0
  5 52  1  0  0  0
  6  7  1  0  0  0
  6 53  1  0  0  0
  6 54  1  0  0  0
  7 12  1  0  0  0
  7 55  1  0  0  0
  7 56  1  0  0  0
  9 42  1  0  0  0
 10 57  1  0  0  0
 11 58  1  0  0  0
 12 13  1  0  0  0
 12 16  1  0  0  0
 13 14  2  0  0  0
 13 35  1  0  0  0
 14 15  1  0  0  0
 14 29  1  0  0  0
 15 16  2  0  0  0
 15 20  1  0  0  0
 16 18  1  0  0  0
 17 18  1  0  0  0
 17 59  1  0  0  0
 17 60  1  0  0  0
 17 61  1  0  0  0
 18 19  1  0  0  0
 18 62  1  0  0  0
 19 63  1  0  0  0
 19 64  1  0  0  0
 19 65  1  0  0  0
 20 21  2  0  0  0
 20 22  1  0  0  0
 22 23  1  0  0  0
 22 66  1  0  0  0
 23 24  2  0  0  0
 23 28  1  0  0  0
 24 25  1  0  0  0
 24 67  1  0  0  0
 25 26  2  0  0  0
 25 68  1  0  0  0
 26 27  1  0  0  0
 26 69  1  0  0  0
 27 28  2  0  0  0
 27 70  1  0  0  0
 28 71  1  0  0  0
 29 30  2  0  0  0
 29 34  1  0  0  0
 30 31  1  0  0  0
 30 72  1  0  0  0
 31 32  2  0  0  0
 31 73  1  0  0  0
 32 33  1  0  0  0
 32 74  1  0  0  0
 33 34  2  0  0  0
 33 75  1  0  0  0
 34 76  1  0  0  0
 35 36  2  0  0  0
 35 40  1  0  0  0
 36 37  1  0  0  0
 36 77  1  0  0  0
 37 38  2  0  0  0
 37 78  1  0  0  0
 38 39  1  0  0  0
 38 41  1  0  0  0
 39 40  2  0  0  0
 39 79  1  0  0  0
 40 80  1  0  0  0
 42 43  1  0  0  0
 42 81  1  0  0  0
 42 82  1  0  0  0
 43 44  1  0  0  0
 43 45  1  0  0  0
 43 46  1  0  0  0
 44 83  1  0  0  0
 44 84  1  0  0  0
 44 85  1  0  0  0
 45 86  1  0  0  0
 45 87  1  0  0  0
 45 88  1  0  0  0
 46 89  1  0  0  0
 46 90  1  0  0  0
 46 91  1  0  0  0
M  END
> <s_m_entry_id>
172

> <s_m_entry_name>
334.1

> <i_lp_mmshare_version>
47013

> <i_f3d_flags>
0

> <s_epik_input>
W0NIM11DKFtDSDNdKShbQ0gzXSlbQ0gyXU9DKD1PKVtDSDJdW0NASF0oW09IXSlbQ0gyXVtDQEhdKFtPSF0pW0NIMl1bQ0gyXW4xYygtYzJbY0hdW2NIXWMoRilbY0hdW2NIXTIpYygtYzNbY0hdW2NIXVtjSF1bY0hdW2NIXTMpYyhjMVtDSF0oW0NIM10pW0NIM10pQyg9TylbTkhdYzRbY0hdW2NIXVtjSF1bY0hdW2NIXTQ=

> <s_epik_cmdline>
J2VwaWtfcHl0aG9uJywgJy1waCcsICc3LjQnLCAnLXRuJywgJzgnLCAnLW1hJywgJzIwMCcsICctaW1hZScsICc8aW5maWxlLm1hZT4nLCAnLW9tYWUnLCAnPG91dGZpbGUubWFlPic=

> <r_epik_Ionization_Penalty>
  0.0000

> <r_epik_Ionization_Penalty_Charging>
  0.0000

> <r_epik_Ionization_Penalty_Neutral>
  0.0000

> <r_epik_State_Penalty>
  0.0000

> <r_epik_Charging_Adjusted_Penalty>
0

> <i_epik_Tot_Q>
0

> <i_epik_Tot_abs_Q>
0

> <s_lp_Force_Field>
OPLS3e

> <r_lp_Energy>
45.47538

> <b_lp_Chiralities_Consistent>
1

> <s_lp_Variant>
334-1

> <s_m_job_name>
ligprep_48

> <s_m_Source_Path>
/home/andre/Documents/projects/Esterase/data/FINAL_STUFF/Compounds/MAE_external

> <s_m_Source_File>
172.mae

> <i_m_Source_File_Index>
1

> <r_lp_tautomer_probability>
1

> <s_epik_Chemistry_Notes>
This compound has an ester and may undergo hydrolysis at high or low pH.

$$$$
