173
                    3D
 Schrodinger Suite 2021-1.
 85 88  0  0  1  0            999 V2000
   -3.6428   -0.6397   -3.7098 C   0  0  0  0  0  0
   -2.3606   -0.4025   -2.9024 C   0  0  0  0  0  0
   -2.5184   -0.6121   -1.3775 C   0  0  1  0  0  0
   -1.1573   -0.5217   -0.6451 C   0  0  0  0  0  0
   -1.1770   -0.8972    0.8604 C   0  0  1  0  0  0
    0.2277   -1.0010    1.4947 C   0  0  0  0  0  0
    1.0565   -2.2076    1.0032 C   0  0  0  0  0  0
   -4.2547   -1.7074   -3.6443 O   0  0  0  0  0  0
   -4.0018    0.4430   -4.4388 O   0  0  0  0  0  0
   -3.4211    0.3513   -0.8626 O   0  0  0  0  0  0
   -1.9062    0.0676    1.5949 O   0  0  0  0  0  0
    2.3545   -2.2607    1.6887 N   0  0  0  0  0  0
    2.5786   -2.8642    2.9147 C   0  0  0  0  0  0
    3.8975   -2.6260    3.2915 C   0  0  0  0  0  0
    4.4891   -1.8798    2.2525 C   0  0  0  0  0  0
    3.5032   -1.5848    1.2989 C   0  0  0  0  0  0
    4.2883    0.5845    0.1430 C   0  0  0  0  0  0
    3.5492   -0.7604    0.0004 C   0  0  0  0  0  0
    4.1312   -1.5991   -1.1506 C   0  0  0  0  0  0
    5.8469   -1.4192    2.2295 C   0  0  0  0  0  0
    6.7151   -2.0669    1.6462 O   0  0  0  0  0  0
    6.0105   -0.2558    2.8950 N   0  0  0  0  0  0
    7.1744    0.5133    3.0755 C   0  0  0  0  0  0
    7.0791    1.5514    4.0065 C   0  0  0  0  0  0
    8.1738    2.3751    4.2540 C   0  0  0  0  0  0
    9.3656    2.1641    3.5657 C   0  0  0  0  0  0
    9.4713    1.1386    2.6297 C   0  0  0  0  0  0
    8.3784    0.3126    2.3798 C   0  0  0  0  0  0
    4.5350   -3.1159    4.5530 C   0  0  0  0  0  0
    5.0866   -2.2146    5.4687 C   0  0  0  0  0  0
    5.6703   -2.6824    6.6429 C   0  0  0  0  0  0
    5.6976   -4.0508    6.9021 C   0  0  0  0  0  0
    5.1449   -4.9555    5.9982 C   0  0  0  0  0  0
    4.5626   -4.4874    4.8234 C   0  0  0  0  0  0
    1.5338   -3.6116    3.6756 C   0  0  0  0  0  0
    1.0076   -4.8067    3.1770 C   0  0  0  0  0  0
    0.0463   -5.5007    3.9067 C   0  0  0  0  0  0
   -0.3804   -5.0029    5.1362 C   0  0  0  0  0  0
    0.1493   -3.8181    5.6437 C   0  0  0  0  0  0
    1.1104   -3.1235    4.9143 C   0  0  0  0  0  0
   -1.3141   -5.6771    5.8447 F   0  0  0  0  0  0
   -5.7320    1.8922   -5.2747 C   0  0  0  0  0  0
   -5.1701    0.4504   -5.2683 C   0  0  0  0  0  0
   -4.8494   -0.1096   -6.6800 C   0  0  0  0  0  0
   -4.8874    2.7628   -5.8293 F   0  0  0  0  0  0
   -5.9884    2.3133   -4.0355 F   0  0  0  0  0  0
   -6.8785    1.9657   -5.9511 F   0  0  0  0  0  0
   -4.4456   -1.3791   -6.6304 F   0  0  0  0  0  0
   -5.9221   -0.0802   -7.4706 F   0  0  0  0  0  0
   -3.8921    0.5918   -7.2885 F   0  0  0  0  0  0
   -1.6004   -1.0802   -3.2913 H   0  0  0  0  0  0
   -1.9874    0.6041   -3.0960 H   0  0  0  0  0  0
   -2.9431   -1.6007   -1.1934 H   0  0  0  0  0  0
   -0.4715   -1.1950   -1.1586 H   0  0  0  0  0  0
   -0.7330    0.4763   -0.7713 H   0  0  0  0  0  0
   -1.6889   -1.8522    0.9891 H   0  0  0  0  0  0
    0.7758   -0.0720    1.3275 H   0  0  0  0  0  0
    0.1186   -1.0912    2.5778 H   0  0  0  0  0  0
    0.5114   -3.1325    1.1834 H   0  0  0  0  0  0
    1.2194   -2.1986   -0.0734 H   0  0  0  0  0  0
   -3.4803    0.2322    0.0890 H   0  0  0  0  0  0
   -1.4578    0.9131    1.5180 H   0  0  0  0  0  0
    3.9316    1.1455    1.0077 H   0  0  0  0  0  0
    4.1298    1.2086   -0.7372 H   0  0  0  0  0  0
    5.3660    0.4569    0.2420 H   0  0  0  0  0  0
    2.5436   -0.4734   -0.3036 H   0  0  0  0  0  0
    3.5410   -2.5001   -1.3218 H   0  0  0  0  0  0
    5.1554   -1.9096   -0.9396 H   0  0  0  0  0  0
    4.1464   -1.0351   -2.0839 H   0  0  0  0  0  0
    5.1889    0.1172    3.3469 H   0  0  0  0  0  0
    6.1586    1.7240    4.5462 H   0  0  0  0  0  0
    8.0991    3.1743    4.9766 H   0  0  0  0  0  0
   10.2147    2.8034    3.7572 H   0  0  0  0  0  0
   10.3977    0.9859    2.0958 H   0  0  0  0  0  0
    8.4927   -0.4616    1.6384 H   0  0  0  0  0  0
    5.0572   -1.1520    5.2796 H   0  0  0  0  0  0
    6.0968   -1.9872    7.3510 H   0  0  0  0  0  0
    6.1492   -4.4139    7.8137 H   0  0  0  0  0  0
    5.1679   -6.0148    6.2073 H   0  0  0  0  0  0
    4.1347   -5.1910    4.1238 H   0  0  0  0  0  0
    1.3438   -5.1983    2.2278 H   0  0  0  0  0  0
   -0.3643   -6.4227    3.5223 H   0  0  0  0  0  0
   -0.1826   -3.4404    6.5995 H   0  0  0  0  0  0
    1.5233   -2.2070    5.3108 H   0  0  0  0  0  0
   -5.9377   -0.1806   -4.8157 H   0  0  0  0  0  0
  1  2  1  0  0  0
  1  9  1  0  0  0
  1  8  2  0  0  0
  2  3  1  0  0  0
  2 51  1  0  0  0
  2 52  1  0  0  0
  3  4  1  0  0  0
  3 10  1  0  0  0
  3 53  1  0  0  0
  4  5  1  0  0  0
  4 54  1  0  0  0
  4 55  1  0  0  0
  5  6  1  0  0  0
  5 11  1  0  0  0
  5 56  1  0  0  0
  6  7  1  0  0  0
  6 57  1  0  0  0
  6 58  1  0  0  0
  7 12  1  0  0  0
  7 59  1  0  0  0
  7 60  1  0  0  0
  9 43  1  0  0  0
 10 61  1  0  0  0
 11 62  1  0  0  0
 12 13  1  0  0  0
 12 16  1  0  0  0
 13 14  2  0  0  0
 13 35  1  0  0  0
 14 15  1  0  0  0
 14 29  1  0  0  0
 15 16  2  0  0  0
 15 20  1  0  0  0
 16 18  1  0  0  0
 17 18  1  0  0  0
 17 63  1  0  0  0
 17 64  1  0  0  0
 17 65  1  0  0  0
 18 19  1  0  0  0
 18 66  1  0  0  0
 19 67  1  0  0  0
 19 68  1  0  0  0
 19 69  1  0  0  0
 20 21  2  0  0  0
 20 22  1  0  0  0
 22 23  1  0  0  0
 22 70  1  0  0  0
 23 24  2  0  0  0
 23 28  1  0  0  0
 24 25  1  0  0  0
 24 71  1  0  0  0
 25 26  2  0  0  0
 25 72  1  0  0  0
 26 27  1  0  0  0
 26 73  1  0  0  0
 27 28  2  0  0  0
 27 74  1  0  0  0
 28 75  1  0  0  0
 29 30  2  0  0  0
 29 34  1  0  0  0
 30 31  1  0  0  0
 30 76  1  0  0  0
 31 32  2  0  0  0
 31 77  1  0  0  0
 32 33  1  0  0  0
 32 78  1  0  0  0
 33 34  2  0  0  0
 33 79  1  0  0  0
 34 80  1  0  0  0
 35 36  2  0  0  0
 35 40  1  0  0  0
 36 37  1  0  0  0
 36 81  1  0  0  0
 37 38  2  0  0  0
 37 82  1  0  0  0
 38 39  1  0  0  0
 38 41  1  0  0  0
 39 40  2  0  0  0
 39 83  1  0  0  0
 40 84  1  0  0  0
 42 43  1  0  0  0
 42 45  1  0  0  0
 42 46  1  0  0  0
 42 47  1  0  0  0
 43 44  1  0  0  0
 43 85  1  0  0  0
 44 48  1  0  0  0
 44 49  1  0  0  0
 44 50  1  0  0  0
M  END
> <s_m_entry_id>
173

> <s_m_entry_name>
335.1

> <i_lp_mmshare_version>
47013

> <i_f3d_flags>
0

> <s_epik_input>
RkMoRikoRilbQ0hdKEMoRikoRilGKU9DKD1PKVtDSDJdW0NASF0oW09IXSlbQ0gyXVtDQEhdKFtPSF0pW0NIMl1bQ0gyXW4xYygtYzJbY0hdW2NIXWMoRilbY0hdW2NIXTIpYygtYzNbY0hdW2NIXVtjSF1bY0hdW2NIXTMpYyhjMVtDSF0oW0NIM10pW0NIM10pQyg9TylbTkhdYzRbY0hdW2NIXVtjSF1bY0hdW2NIXTQ=

> <s_epik_cmdline>
J2VwaWtfcHl0aG9uJywgJy1waCcsICc3LjQnLCAnLXRuJywgJzgnLCAnLW1hJywgJzIwMCcsICctaW1hZScsICc8aW5maWxlLm1hZT4nLCAnLW9tYWUnLCAnPG91dGZpbGUubWFlPic=

> <r_epik_Ionization_Penalty>
  0.0000

> <r_epik_Ionization_Penalty_Charging>
  0.0000

> <r_epik_Ionization_Penalty_Neutral>
  0.0000

> <r_epik_State_Penalty>
  0.0000

> <r_epik_Charging_Adjusted_Penalty>
0

> <i_epik_Tot_Q>
0

> <i_epik_Tot_abs_Q>
0

> <s_lp_Force_Field>
OPLS3e

> <r_lp_Energy>
37.246492

> <b_lp_Chiralities_Consistent>
1

> <s_lp_Variant>
335-1

> <s_m_job_name>
ligprep_49

> <s_m_Source_Path>
/home/andre/Documents/projects/Esterase/data/FINAL_STUFF/Compounds/MAE_external

> <s_m_Source_File>
173.mae

> <i_m_Source_File_Index>
1

> <r_lp_tautomer_probability>
1

> <s_epik_Chemistry_Notes>
This compound has an ester and may undergo hydrolysis at high or low pH.

$$$$
