174
                    3D
 Schrodinger Suite 2021-1.
 90 94  0  0  1  0            999 V2000
    0.1811   -4.3774   -1.1950 C   0  0  0  0  0  0
   -0.6543   -3.4703   -0.2779 C   0  0  0  0  0  0
    0.1473   -2.4474    0.5636 C   0  0  1  0  0  0
   -0.7827   -1.4590    1.3080 C   0  0  0  0  0  0
   -0.0777   -0.4314    2.2291 C   0  0  1  0  0  0
    0.9154    0.4970    1.4951 C   0  0  0  0  0  0
    1.6901    1.4509    2.4302 C   0  0  0  0  0  0
    1.3665   -4.1412   -1.4485 O   0  0  0  0  0  0
   -0.5471   -5.4310   -1.6543 O   0  0  0  0  0  0
    0.9621   -3.1342    1.4983 O   0  0  0  0  0  0
   -1.0707    0.3498    2.8660 O   0  0  0  0  0  0
    2.7073    2.1999    1.6800 N   0  0  0  0  0  0
    2.5240    3.4601    1.1352 C   0  0  0  0  0  0
    3.6608    3.7968    0.4047 C   0  0  0  0  0  0
    4.5636    2.7231    0.5368 C   0  0  0  0  0  0
    3.9433    1.7077    1.2791 C   0  0  0  0  0  0
    4.7382   -0.5774    0.4450 C   0  0  0  0  0  0
    4.4288    0.3012    1.6716 C   0  0  0  0  0  0
    5.6252    0.3692    2.6374 C   0  0  0  0  0  0
    5.8578    2.6454   -0.0778 C   0  0  0  0  0  0
    6.8627    3.0047    0.5347 O   0  0  0  0  0  0
    5.8048    2.1733   -1.3415 N   0  0  0  0  0  0
    6.8527    1.9612   -2.2553 C   0  0  0  0  0  0
    6.4714    1.7480   -3.5829 C   0  0  0  0  0  0
    7.4352    1.5255   -4.5626 C   0  0  0  0  0  0
    8.7830    1.5098   -4.2137 C   0  0  0  0  0  0
    9.1755    1.7095   -2.8927 C   0  0  0  0  0  0
    8.2142    1.9328   -1.9103 C   0  0  0  0  0  0
    3.8588    5.0782   -0.3419 C   0  0  0  0  0  0
    4.1134    5.0695   -1.7168 C   0  0  0  0  0  0
    4.2918    6.2690   -2.4008 C   0  0  0  0  0  0
    4.2104    7.4759   -1.7098 C   0  0  0  0  0  0
    3.9508    7.4941   -0.3412 C   0  0  0  0  0  0
    3.7743    6.2943    0.3428 C   0  0  0  0  0  0
    1.2824    4.2709    1.3109 C   0  0  0  0  0  0
    0.9212    4.7506    2.5732 C   0  0  0  0  0  0
   -0.2266    5.5245    2.7207 C   0  0  0  0  0  0
   -1.0055    5.8248    1.6050 C   0  0  0  0  0  0
   -0.6444    5.3586    0.3423 C   0  0  0  0  0  0
    0.5028    4.5836    0.1944 C   0  0  0  0  0  0
   -2.1193    6.5778    1.7482 F   0  0  0  0  0  0
    0.0583   -6.3687   -2.4600 C   0  0  0  0  0  0
    0.7299   -7.4522   -1.8900 C   0  0  0  0  0  0
    1.3302   -8.4047   -2.7084 C   0  0  0  0  0  0
    1.2609   -8.2919   -4.0980 C   0  0  0  0  0  0
    0.5713   -7.2078   -4.6654 C   0  0  0  0  0  0
   -0.0303   -6.2541   -3.8485 C   0  0  0  0  0  0
    1.8908   -9.2821   -4.8276 O   0  0  0  0  0  0
    1.8660   -9.2196   -6.2496 C   0  0  0  0  0  0
   -1.3627   -2.9348   -0.9101 H   0  0  0  0  0  0
   -1.2519   -4.0981    0.3844 H   0  0  0  0  0  0
    0.7998   -1.8844   -0.1048 H   0  0  0  0  0  0
   -1.3864   -0.9241    0.5725 H   0  0  0  0  0  0
   -1.4888   -2.0358    1.9091 H   0  0  0  0  0  0
    0.4535   -0.9694    3.0155 H   0  0  0  0  0  0
    1.6365   -0.1131    0.9529 H   0  0  0  0  0  0
    0.3862    1.0782    0.7377 H   0  0  0  0  0  0
    1.0050    2.1374    2.9235 H   0  0  0  0  0  0
    2.1724    0.9164    3.2483 H   0  0  0  0  0  0
    1.4624   -2.4883    2.0021 H   0  0  0  0  0  0
   -1.5528    0.8382    2.1946 H   0  0  0  0  0  0
    3.9022   -0.5922   -0.2553 H   0  0  0  0  0  0
    4.9304   -1.6086    0.7434 H   0  0  0  0  0  0
    5.6217   -0.2371   -0.0932 H   0  0  0  0  0  0
    3.6593   -0.2476    2.2104 H   0  0  0  0  0  0
    5.3782    0.9436    3.5312 H   0  0  0  0  0  0
    6.4965    0.8331    2.1756 H   0  0  0  0  0  0
    5.9255   -0.6277    2.9624 H   0  0  0  0  0  0
    4.8853    1.9657   -1.7020 H   0  0  0  0  0  0
    5.4279    1.7589   -3.8645 H   0  0  0  0  0  0
    7.1385    1.3661   -5.5889 H   0  0  0  0  0  0
    9.5308    1.3371   -4.9736 H   0  0  0  0  0  0
   10.2227    1.6882   -2.6295 H   0  0  0  0  0  0
    8.5523    2.0681   -0.8954 H   0  0  0  0  0  0
    4.1659    4.1381   -2.2605 H   0  0  0  0  0  0
    4.4900    6.2641   -3.4625 H   0  0  0  0  0  0
    4.3482    8.4065   -2.2406 H   0  0  0  0  0  0
    3.8872    8.4339    0.1871 H   0  0  0  0  0  0
    3.5741    6.3113    1.4045 H   0  0  0  0  0  0
    1.5295    4.5264    3.4376 H   0  0  0  0  0  0
   -0.5096    5.8936    3.6956 H   0  0  0  0  0  0
   -1.2498    5.6001   -0.5187 H   0  0  0  0  0  0
    0.7850    4.2283   -0.7863 H   0  0  0  0  0  0
    0.7915   -7.5508   -0.8159 H   0  0  0  0  0  0
    1.8542   -9.2363   -2.2602 H   0  0  0  0  0  0
    0.4917   -7.0891   -5.7352 H   0  0  0  0  0  0
   -0.5601   -5.4241   -4.2929 H   0  0  0  0  0  0
    2.4150  -10.0688   -6.6565 H   0  0  0  0  0  0
    2.3438   -8.3107   -6.6191 H   0  0  0  0  0  0
    0.8464   -9.2708   -6.6348 H   0  0  0  0  0  0
  1  2  1  0  0  0
  1  9  1  0  0  0
  1  8  2  0  0  0
  2  3  1  0  0  0
  2 50  1  0  0  0
  2 51  1  0  0  0
  3  4  1  0  0  0
  3 10  1  0  0  0
  3 52  1  0  0  0
  4  5  1  0  0  0
  4 53  1  0  0  0
  4 54  1  0  0  0
  5  6  1  0  0  0
  5 11  1  0  0  0
  5 55  1  0  0  0
  6  7  1  0  0  0
  6 56  1  0  0  0
  6 57  1  0  0  0
  7 12  1  0  0  0
  7 58  1  0  0  0
  7 59  1  0  0  0
  9 42  1  0  0  0
 10 60  1  0  0  0
 11 61  1  0  0  0
 12 13  1  0  0  0
 12 16  1  0  0  0
 13 14  2  0  0  0
 13 35  1  0  0  0
 14 15  1  0  0  0
 14 29  1  0  0  0
 15 16  2  0  0  0
 15 20  1  0  0  0
 16 18  1  0  0  0
 17 18  1  0  0  0
 17 62  1  0  0  0
 17 63  1  0  0  0
 17 64  1  0  0  0
 18 19  1  0  0  0
 18 65  1  0  0  0
 19 66  1  0  0  0
 19 67  1  0  0  0
 19 68  1  0  0  0
 20 21  2  0  0  0
 20 22  1  0  0  0
 22 23  1  0  0  0
 22 69  1  0  0  0
 23 24  2  0  0  0
 23 28  1  0  0  0
 24 25  1  0  0  0
 24 70  1  0  0  0
 25 26  2  0  0  0
 25 71  1  0  0  0
 26 27  1  0  0  0
 26 72  1  0  0  0
 27 28  2  0  0  0
 27 73  1  0  0  0
 28 74  1  0  0  0
 29 30  2  0  0  0
 29 34  1  0  0  0
 30 31  1  0  0  0
 30 75  1  0  0  0
 31 32  2  0  0  0
 31 76  1  0  0  0
 32 33  1  0  0  0
 32 77  1  0  0  0
 33 34  2  0  0  0
 33 78  1  0  0  0
 34 79  1  0  0  0
 35 36  2  0  0  0
 35 40  1  0  0  0
 36 37  1  0  0  0
 36 80  1  0  0  0
 37 38  2  0  0  0
 37 81  1  0  0  0
 38 39  1  0  0  0
 38 41  1  0  0  0
 39 40  2  0  0  0
 39 82  1  0  0  0
 40 83  1  0  0  0
 42 43  2  0  0  0
 42 47  1  0  0  0
 43 44  1  0  0  0
 43 84  1  0  0  0
 44 45  2  0  0  0
 44 85  1  0  0  0
 45 46  1  0  0  0
 45 48  1  0  0  0
 46 47  2  0  0  0
 46 86  1  0  0  0
 47 87  1  0  0  0
 48 49  1  0  0  0
 49 88  1  0  0  0
 49 89  1  0  0  0
 49 90  1  0  0  0
M  END
> <s_m_entry_id>
174

> <s_m_entry_name>
336.1

> <i_lp_mmshare_version>
47013

> <i_f3d_flags>
0

> <s_epik_input>
W2NIXTFbY0hdYyhPW0NIM10pW2NIXVtjSF1jMU9DKD1PKVtDSDJdW0NASF0oW09IXSlbQ0gyXVtDQEhdKFtPSF0pW0NIMl1bQ0gyXW4yYygtYzNbY0hdW2NIXWMoRilbY0hdW2NIXTMpYygtYzRbY0hdW2NIXVtjSF1bY0hdW2NIXTQpYyhjMltDSF0oW0NIM10pW0NIM10pQyg9TylbTkhdYzVbY0hdW2NIXVtjSF1bY0hdW2NIXTU=

> <s_epik_cmdline>
J2VwaWtfcHl0aG9uJywgJy1waCcsICc3LjQnLCAnLXRuJywgJzgnLCAnLW1hJywgJzIwMCcsICctaW1hZScsICc8aW5maWxlLm1hZT4nLCAnLW9tYWUnLCAnPG91dGZpbGUubWFlPic=

> <r_epik_Ionization_Penalty>
  0.0000

> <r_epik_Ionization_Penalty_Charging>
  0.0000

> <r_epik_Ionization_Penalty_Neutral>
  0.0000

> <r_epik_State_Penalty>
  0.0000

> <r_epik_Charging_Adjusted_Penalty>
0

> <i_epik_Tot_Q>
0

> <i_epik_Tot_abs_Q>
0

> <s_lp_Force_Field>
OPLS3e

> <r_lp_Energy>
60.65201

> <b_lp_Chiralities_Consistent>
1

> <s_lp_Variant>
336-1

> <s_m_job_name>
ligprep_50

> <s_m_Source_Path>
/home/andre/Documents/projects/Esterase/data/FINAL_STUFF/Compounds/MAE_external

> <s_m_Source_File>
174.mae

> <i_m_Source_File_Index>
1

> <r_lp_tautomer_probability>
1

$$$$
