177
                    3D
 Schrodinger Suite 2021-1.
 97101  0  0  1  0            999 V2000
    2.8868    1.7373   -1.7994 C   0  0  2  0  0  0
    2.2042    0.6257   -2.6260 C   0  0  2  0  0  0
    2.4438   -0.7514   -1.9583 C   0  0  2  0  0  0
    2.0746   -0.7167   -0.4591 C   0  0  1  0  0  0
    2.7943    0.4649    0.2105 C   0  0  1  0  0  0
    2.4689    1.6572   -0.4599 O   0  0  0  0  0  0
    2.6048    0.6273   -3.9876 O   0  0  0  0  0  0
    4.2473    1.5599   -1.8267 O   0  0  0  0  0  0
    2.3736    0.5217    1.5448 O   0  0  0  0  0  0
    5.2369    1.1330    3.9631 C   0  0  0  0  0  0
    4.3667    0.4184    2.9139 C   0  0  0  0  0  0
    3.1805    1.2971    2.4338 C   0  0  2  0  0  0
    2.3370    1.8021    3.6402 C   0  0  1  0  0  0
    3.2258    2.4968    4.6985 C   0  0  0  0  0  0
    4.3935    1.6068    5.1588 C   0  0  0  0  0  0
    1.3400    2.7690    3.3052 O   0  0  0  0  0  0
   -0.7970    2.2458    0.4878 C   0  0  2  0  0  0
    0.1815    2.3399    2.6537 C   0  0  1  0  0  0
   -0.9703    3.1942    3.2152 C   0  0  1  0  0  0
   -2.2535    2.9913    2.3781 C   0  0  2  0  0  0
   -1.9651    3.1712    0.8680 C   0  0  1  0  0  0
    0.6699   -0.6846   -0.2779 O   0  0  0  0  0  0
    3.7750   -1.2114   -2.1357 O   0  0  0  0  0  0
    0.3206    2.5704    1.2733 O   0  0  0  0  0  0
   -0.5171    2.4206   -0.8441 O   0  0  0  0  0  0
   -1.7318    4.5342    0.5396 O   0  0  0  0  0  0
   -3.2711    3.8751    2.8630 O   0  0  0  0  0  0
   -4.6026    3.7330    2.3579 C   0  0  1  0  0  0
   -1.2003    2.8795    4.5773 O   0  0  0  0  0  0
   -5.3099    2.5085    3.0082 C   0  0  0  0  0  0
   -8.0605    1.4112    0.3925 C   0  0  0  0  0  0
   -6.6614    1.7637    0.9379 C   0  0  0  0  0  0
   -6.7029    2.1231    2.4450 C   0  0  0  0  0  0
   -7.3005    0.9270    3.2229 C   0  0  0  0  0  0
   -8.7182    0.5791    2.7273 C   0  0  0  0  0  0
   -8.7295    0.2873    1.2119 C   0  0  0  0  0  0
   -5.3510    5.0564    2.6033 C   0  0  0  0  0  0
   -6.3937    5.2280    1.7622 O   0  0  0  0  0  0
   -4.9925    5.8560    3.4720 O   0  0  0  0  0  0
   -7.1485    6.4352    1.7801 C   0  0  0  0  0  0
    2.5898    2.6670   -2.2900 H   0  0  0  0  0  0
    1.1301    0.8233   -2.6284 H   0  0  0  0  0  0
    1.8285   -1.5008   -2.4597 H   0  0  0  0  0  0
    2.4119   -1.6337    0.0273 H   0  0  0  0  0  0
    3.8817    0.3731    0.1620 H   0  0  0  0  0  0
    2.3198    1.4538   -4.3852 H   0  0  0  0  0  0
    4.5476    1.7217   -2.7240 H   0  0  0  0  0  0
    6.0271    0.4652    4.3082 H   0  0  0  0  0  0
    5.7378    1.9876    3.5052 H   0  0  0  0  0  0
    5.0115    0.1410    2.0801 H   0  0  0  0  0  0
    3.9841   -0.4966    3.3690 H   0  0  0  0  0  0
    3.5552    2.1764    1.9042 H   0  0  0  0  0  0
    1.8427    0.9539    4.1192 H   0  0  0  0  0  0
    3.6505    3.4118    4.2817 H   0  0  0  0  0  0
    2.6309    2.7612    5.5739 H   0  0  0  0  0  0
    4.0060    0.7430    5.7015 H   0  0  0  0  0  0
    5.0220    2.1526    5.8635 H   0  0  0  0  0  0
   -0.9989    1.1971    0.7141 H   0  0  0  0  0  0
    0.0238    1.2648    2.7765 H   0  0  0  0  0  0
   -0.6634    4.2412    3.1737 H   0  0  0  0  0  0
   -2.5966    1.9688    2.5374 H   0  0  0  0  0  0
   -2.8270    2.8525    0.2804 H   0  0  0  0  0  0
    0.4860   -0.7865    0.6589 H   0  0  0  0  0  0
    3.9937   -1.1438   -3.0686 H   0  0  0  0  0  0
    0.1502    1.7755   -1.0903 H   0  0  0  0  0  0
   -1.1462    4.9110    1.2003 H   0  0  0  0  0  0
   -4.5543    3.6158    1.2770 H   0  0  0  0  0  0
   -1.8221    2.1496    4.6219 H   0  0  0  0  0  0
   -4.6742    1.6292    2.9191 H   0  0  0  0  0  0
   -5.3938    2.6866    4.0818 H   0  0  0  0  0  0
   -8.6935    2.2980    0.4115 H   0  0  0  0  0  0
   -7.9879    1.1151   -0.6546 H   0  0  0  0  0  0
   -5.9726    0.9330    0.7747 H   0  0  0  0  0  0
   -6.2434    2.5870    0.3589 H   0  0  0  0  0  0
   -7.3887    2.9600    2.5776 H   0  0  0  0  0  0
   -6.6432    0.0595    3.1422 H   0  0  0  0  0  0
   -7.3278    1.1554    4.2893 H   0  0  0  0  0  0
   -9.1034   -0.2820    3.2746 H   0  0  0  0  0  0
   -9.3949    1.4070    2.9448 H   0  0  0  0  0  0
   -9.7540    0.1365    0.8695 H   0  0  0  0  0  0
   -8.2064   -0.6517    1.0245 H   0  0  0  0  0  0
   -7.4578    6.6717    2.7997 H   0  0  0  0  0  0
   -6.5133    7.2542    1.4390 H   0  0  0  0  0  0
   -8.3708    6.3053    0.8759 C   0  0  0  0  0  0
   -9.2075    7.5917    0.8725 C   0  0  0  0  0  0
  -10.6415    7.0967    0.6719 C   0  0  0  0  0  0
  -10.6862    5.8483    1.5560 C   0  0  0  0  0  0
   -9.3209    5.1835    1.3327 C   0  0  0  0  0  0
   -8.0031    6.0944   -0.1577 H   0  0  0  0  0  0
   -8.8873    8.3187    0.0876 H   0  0  0  0  0  0
   -9.1276    8.0972    1.8657 H   0  0  0  0  0  0
  -11.4079    7.8579    0.9549 H   0  0  0  0  0  0
  -10.8000    6.8126   -0.3967 H   0  0  0  0  0  0
  -10.7849    6.1587    2.6247 H   0  0  0  0  0  0
  -11.5442    5.1768    1.3112 H   0  0  0  0  0  0
   -9.4044    4.4062    0.5346 H   0  0  0  0  0  0
   -8.9598    4.6751    2.2591 H   0  0  0  0  0  0
  1  2  1  0  0  0
  1  6  1  0  0  0
  1  8  1  0  0  0
  1 41  1  0  0  0
  2  3  1  0  0  0
  2  7  1  0  0  0
  2 42  1  0  0  0
  3  4  1  0  0  0
  3 23  1  0  0  0
  3 43  1  0  0  0
  4  5  1  0  0  0
  4 22  1  0  0  0
  4 44  1  0  0  0
  5  6  1  0  0  0
  5  9  1  0  0  0
  5 45  1  0  0  0
  7 46  1  0  0  0
  8 47  1  0  0  0
  9 12  1  0  0  0
 10 11  1  0  0  0
 10 15  1  0  0  0
 10 48  1  0  0  0
 10 49  1  0  0  0
 11 12  1  0  0  0
 11 50  1  0  0  0
 11 51  1  0  0  0
 12 13  1  0  0  0
 12 52  1  0  0  0
 13 14  1  0  0  0
 13 16  1  0  0  0
 13 53  1  0  0  0
 14 15  1  0  0  0
 14 54  1  0  0  0
 14 55  1  0  0  0
 15 56  1  0  0  0
 15 57  1  0  0  0
 16 18  1  0  0  0
 17 21  1  0  0  0
 17 24  1  0  0  0
 17 25  1  0  0  0
 17 58  1  0  0  0
 18 19  1  0  0  0
 18 24  1  0  0  0
 18 59  1  0  0  0
 19 20  1  0  0  0
 19 29  1  0  0  0
 19 60  1  0  0  0
 20 21  1  0  0  0
 20 27  1  0  0  0
 20 61  1  0  0  0
 21 26  1  0  0  0
 21 62  1  0  0  0
 22 63  1  0  0  0
 23 64  1  0  0  0
 25 65  1  0  0  0
 26 66  1  0  0  0
 27 28  1  0  0  0
 28 30  1  0  0  0
 28 37  1  0  0  0
 28 67  1  0  0  0
 29 68  1  0  0  0
 30 33  1  0  0  0
 30 69  1  0  0  0
 30 70  1  0  0  0
 31 32  1  0  0  0
 31 36  1  0  0  0
 31 71  1  0  0  0
 31 72  1  0  0  0
 32 33  1  0  0  0
 32 73  1  0  0  0
 32 74  1  0  0  0
 33 34  1  0  0  0
 33 75  1  0  0  0
 34 35  1  0  0  0
 34 76  1  0  0  0
 34 77  1  0  0  0
 35 36  1  0  0  0
 35 78  1  0  0  0
 35 79  1  0  0  0
 36 80  1  0  0  0
 36 81  1  0  0  0
 37 38  1  0  0  0
 37 39  2  0  0  0
 38 40  1  0  0  0
 40 82  1  0  0  0
 40 83  1  0  0  0
 40 84  1  0  0  0
 84 85  1  0  0  0
 84 88  1  0  0  0
 84 89  1  0  0  0
 85 86  1  0  0  0
 85 90  1  0  0  0
 85 91  1  0  0  0
 86 87  1  0  0  0
 86 92  1  0  0  0
 86 93  1  0  0  0
 87 88  1  0  0  0
 87 94  1  0  0  0
 87 95  1  0  0  0
 88 96  1  0  0  0
 88 97  1  0  0  0
M  END
> <s_m_entry_id>
177

> <s_m_entry_name>
entry

> <i_lp_mmshare_version>
47013

> <i_f3d_flags>
0

> <s_epik_input>
W09IXVtDQEhdMVtDQEBIXShbT0hdKVtDQEBIXShbT0hdKVtDQEhdKFtPSF0pW0NAQEhdKE8xKU9bQ0BASF0yW0NIMl1bQ0gyXVtDSDJdW0NIMl1bQ0BIXTJPW0NASF0oTzMpW0NASF0oW09IXSlbQ0BIXShbQ0BASF0oW09IXSlbQ0BIXTNbT0hdKU9bQ0BASF0oW0NIMl1bQ0hdNFtDSDJdW0NIMl1bQ0gyXVtDSDJdW0NIMl00KUMoPU8pT1tDSDJdW0NIXTVbQ0gyXVtDSDJdW0NIMl01

> <s_epik_cmdline>
J2VwaWtfcHl0aG9uJywgJy1waCcsICc3LjQnLCAnLXRuJywgJzgnLCAnLW1hJywgJzIwMCcsICctaW1hZScsICc8aW5maWxlLm1hZT4nLCAnLW9tYWUnLCAnPG91dGZpbGUubWFlPic=

> <r_epik_Ionization_Penalty>
  0.0001

> <r_epik_Ionization_Penalty_Charging>
  0.0000

> <r_epik_Ionization_Penalty_Neutral>
  0.0001

> <r_epik_State_Penalty>
  0.0000

> <r_epik_Charging_Adjusted_Penalty>
0

> <i_epik_Tot_Q>
0

> <i_epik_Tot_abs_Q>
0

> <s_lp_Force_Field>
OPLS3e

> <r_lp_Energy>
45.322637

> <b_lp_Chiralities_Consistent>
1

> <s_lp_Variant>
PD_2k-2

> <s_m_job_name>
ligprep_53

> <s_m_Source_Path>
/home/andre/Documents/projects/Esterase/data/FINAL_STUFF/Compounds/MAE_external

> <s_m_Source_File>
177.mae

> <i_m_Source_File_Index>
1

> <r_lp_tautomer_probability>
1

> <s_epik_Chemistry_Notes>
This compound has an ester and may undergo hydrolysis at high or low pH. This compound contains an acetal/aminal-like group ( X-CH(R)-Y where X, Y are N, S, or O) that may be acid/base labile, releasing an aldehyde.

$$$$
