179
                    3D
 Schrodinger Suite 2021-1.
 46 50  0  0  1  0            999 V2000
   -2.1916   -1.2182    0.0634 C   0  0  0  0  0  0
   -2.8555    0.0089    0.0323 C   0  0  0  0  0  0
   -2.1714    1.2329    0.0695 C   0  0  0  0  0  0
   -0.7690    1.1716    0.1429 C   0  0  0  0  0  0
   -0.0839   -0.0473    0.1877 C   0  0  0  0  0  0
   -0.8016   -1.2433    0.1365 C   0  0  0  0  0  0
   -4.2605    0.0319   -0.0413 N   0  3  0  0  0  0
   -5.0362    1.0966   -0.0796 C   0  0  0  0  0  0
   -4.5114    2.4138   -0.0506 C   0  0  0  0  0  0
   -2.9432    2.5845    0.0306 C   0  0  0  0  0  0
   -2.5556    3.3727    1.2962 C   0  0  0  0  0  0
   -1.8099    4.4994    1.3205 C   0  0  0  0  0  0
   -1.2753    5.1523    0.1220 C   0  0  0  0  0  0
   -1.6814    4.5029   -1.1278 C   0  0  0  0  0  0
   -2.4256    3.3765   -1.1851 C   0  0  0  0  0  0
   -6.4094    0.8866   -0.1498 C   0  0  0  0  0  0
   -7.2909    1.9135   -0.1918 C   0  0  0  0  0  0
   -6.8864    3.3272   -0.1688 C   0  0  0  0  0  0
   -5.4080    3.4637   -0.0945 C   0  0  0  0  0  0
   -0.5665    6.1554    0.1605 O   0  0  0  0  0  0
   -4.8714    5.1555   -0.0644 Cl  0  0  0  0  0  0
   -7.6801    4.2685   -0.2067 O   0  0  0  0  0  0
   -9.0226    1.5608   -0.2790 Cl  0  0  0  0  0  0
    1.2913   -0.0724    0.2414 O   0  0  0  0  0  0
    1.9278    0.0458    1.4487 C   0  0  0  0  0  0
    3.4245    0.0060    1.3302 C   0  0  0  0  0  0
    1.3402    0.1585    2.5302 O   0  0  0  0  0  0
    4.2039    0.0421    2.4963 C   0  0  0  0  0  0
    5.5937    0.0092    2.4204 C   0  0  0  0  0  0
    6.2159   -0.0587    1.1774 C   0  0  0  0  0  0
    5.4599   -0.0942    0.0094 C   0  0  0  0  0  0
    4.0696   -0.0620    0.0838 C   0  0  0  0  0  0
   -2.7419   -2.1478    0.0305 H   0  0  0  0  0  0
   -0.1984    2.0888    0.1715 H   0  0  0  0  0  0
   -0.2815   -2.1901    0.1586 H   0  0  0  0  0  0
   -2.8891    2.9895    2.2501 H   0  0  0  0  0  0
   -1.6061    4.9402    2.2858 H   0  0  0  0  0  0
   -1.3769    4.9461   -2.0649 H   0  0  0  0  0  0
   -2.6567    2.9953   -2.1696 H   0  0  0  0  0  0
   -6.7831   -0.1287   -0.1712 H   0  0  0  0  0  0
    3.7429    0.0952    3.4727 H   0  0  0  0  0  0
    6.1865    0.0363    3.3229 H   0  0  0  0  0  0
    7.2942   -0.0838    1.1190 H   0  0  0  0  0  0
    5.9496   -0.1461   -0.9521 H   0  0  0  0  0  0
    3.5101   -0.0890   -0.8402 H   0  0  0  0  0  0
   -4.7266   -0.8705   -0.0674 H   0  0  0  0  0  0
  1  2  2  0  0  0
  1  6  1  0  0  0
  1 33  1  0  0  0
  2  3  1  0  0  0
  2  7  1  0  0  0
  3  4  2  0  0  0
  3 10  1  0  0  0
  4  5  1  0  0  0
  4 34  1  0  0  0
  5  6  2  0  0  0
  5 24  1  0  0  0
  6 35  1  0  0  0
  7  8  2  0  0  0
  7 46  1  0  0  0
  8  9  1  0  0  0
  8 16  1  0  0  0
  9 10  1  0  0  0
  9 19  2  0  0  0
 10 15  1  0  0  0
 10 11  1  0  0  0
 11 12  2  0  0  0
 11 36  1  0  0  0
 12 13  1  0  0  0
 12 37  1  0  0  0
 13 14  1  0  0  0
 13 20  2  0  0  0
 14 15  2  0  0  0
 14 38  1  0  0  0
 15 39  1  0  0  0
 16 17  2  0  0  0
 16 40  1  0  0  0
 17 18  1  0  0  0
 17 23  1  0  0  0
 18 19  1  0  0  0
 18 22  2  0  0  0
 19 21  1  0  0  0
 24 25  1  0  0  0
 25 26  1  0  0  0
 25 27  2  0  0  0
 26 32  2  0  0  0
 26 28  1  0  0  0
 28 29  2  0  0  0
 28 41  1  0  0  0
 29 30  1  0  0  0
 29 42  1  0  0  0
 30 31  2  0  0  0
 30 43  1  0  0  0
 31 32  1  0  0  0
 31 44  1  0  0  0
 32 45  1  0  0  0
M  CHG  1   7   1
M  END
> <s_m_entry_id>
179

> <s_m_entry_name>
entry

> <i_lp_mmshare_version>
47013

> <i_f3d_flags>
0

> <s_epik_input>
W0NIXTE9W0NIXUMoPU8pW0NIXT1bQ0hdQzEyYzNjKE49QzRDMj1DKENsKUMoPU8pQyhDbCk9W0NIXTQpW2NIXVtjSF1jKFtjSF0zKU9DKD1PKWM1W2NIXVtjSF1bY0hdW2NIXVtjSF01

> <s_epik_cmdline>
J2VwaWtfcHl0aG9uJywgJy1waCcsICc3LjQnLCAnLXRuJywgJzgnLCAnLW1hJywgJzIwMCcsICctaW1hZScsICc8aW5maWxlLm1hZT4nLCAnLW9tYWUnLCAnPG91dGZpbGUubWFlPic=

> <r_epik_Ionization_Penalty>
  0.0003

> <r_epik_Ionization_Penalty_Charging>
  0.0003

> <r_epik_Ionization_Penalty_Neutral>
  0.0000

> <r_epik_State_Penalty>
  0.0000

> <r_epik_Charging_Adjusted_Penalty>
0.000273506000093498

> <i_epik_Tot_Q>
1

> <i_epik_Tot_abs_Q>
1

> <s_lp_Force_Field>
OPLS3e

> <r_lp_Energy>
71.547951

> <b_lp_Chiralities_Consistent>
1

> <s_lp_Variant>
341-1

> <s_m_job_name>
ligprep_56

> <s_m_Source_Path>
/home/andre/Documents/projects/Esterase/data/FINAL_STUFF/Compounds/MAE_external

> <s_m_Source_File>
179.mae

> <i_m_Source_File_Index>
1

> <r_lp_tautomer_probability>
1

> <s_epik_Chemistry_Notes>
This compound has an imine and may undergo hydrolysis.

$$$$
