20
                    3D
 Schrodinger Suite 2021-1.
 38 39  0  0  1  0            999 V2000
   -1.9704   -2.4935   -4.7119 C   0  0  0  0  0  0
   -1.5751   -1.7359   -3.5812 C   0  0  0  0  0  0
   -1.9833   -2.1604   -2.2814 C   0  0  0  0  0  0
   -2.7724   -3.3282   -2.1580 C   0  0  0  0  0  0
   -3.1439   -4.0481   -3.2899 C   0  0  0  0  0  0
   -2.7544   -3.6481   -4.5663 C   0  0  0  0  0  0
   -0.7840   -0.5678   -3.7057 C   0  0  0  0  0  0
   -0.4126    0.1548   -2.5754 C   0  0  0  0  0  0
   -0.8123   -0.2520   -1.3011 C   0  0  0  0  0  0
   -1.5879   -1.4029   -1.1509 C   0  0  0  0  0  0
   -0.3940    0.5401   -0.0689 C   0  0  1  0  0  0
    0.9723    0.2369    0.2220 O   0  0  0  0  0  0
   -0.6688    1.9845   -0.2295 C   0  0  0  0  0  0
   -0.8839    3.1148   -0.3555 N   0  0  0  0  0  0
   -3.1807   -4.4381   -5.6169 O   0  0  0  0  0  0
   -2.8114   -4.0857   -6.9459 C   0  0  0  0  0  0
    1.6372    0.8004    1.2587 C   0  0  0  0  0  0
    3.1015    0.3635    1.3205 C   0  0  0  0  0  0
    1.1679    1.5810    2.0882 O   0  0  0  0  0  0
    4.0641    1.4542    0.8155 C   0  0  0  0  0  0
    5.5321    1.0150    0.8813 C   0  0  0  0  0  0
   -1.6508   -2.1548   -5.6862 H   0  0  0  0  0  0
   -3.0868   -3.6595   -1.1787 H   0  0  0  0  0  0
   -3.7471   -4.9366   -3.1723 H   0  0  0  0  0  0
   -0.4677   -0.2390   -4.6852 H   0  0  0  0  0  0
    0.1949    1.0406   -2.6942 H   0  0  0  0  0  0
   -1.8963   -1.7284   -0.1672 H   0  0  0  0  0  0
   -1.0012    0.2079    0.7749 H   0  0  0  0  0  0
   -3.2368   -4.8088   -7.6417 H   0  0  0  0  0  0
   -1.7282   -4.1003   -7.0761 H   0  0  0  0  0  0
   -3.1924   -3.1009   -7.2205 H   0  0  0  0  0  0
    3.3421    0.1005    2.3511 H   0  0  0  0  0  0
    3.2349   -0.5473    0.7353 H   0  0  0  0  0  0
    3.8187    1.7207   -0.2141 H   0  0  0  0  0  0
    3.9397    2.3651    1.4041 H   0  0  0  0  0  0
    6.1908    1.8046    0.5187 H   0  0  0  0  0  0
    5.7084    0.1300    0.2690 H   0  0  0  0  0  0
    5.8293    0.7799    1.9039 H   0  0  0  0  0  0
  1  2  2  0  0  0
  1  6  1  0  0  0
  1 22  1  0  0  0
  2  3  1  0  0  0
  2  7  1  0  0  0
  3  4  2  0  0  0
  3 10  1  0  0  0
  4  5  1  0  0  0
  4 23  1  0  0  0
  5  6  2  0  0  0
  5 24  1  0  0  0
  6 15  1  0  0  0
  7  8  2  0  0  0
  7 25  1  0  0  0
  8  9  1  0  0  0
  8 26  1  0  0  0
  9 10  2  0  0  0
  9 11  1  0  0  0
 10 27  1  0  0  0
 11 12  1  0  0  0
 11 13  1  0  0  0
 11 28  1  0  0  0
 12 17  1  0  0  0
 13 14  3  0  0  0
 15 16  1  0  0  0
 16 29  1  0  0  0
 16 30  1  0  0  0
 16 31  1  0  0  0
 17 18  1  0  0  0
 17 19  2  0  0  0
 18 20  1  0  0  0
 18 32  1  0  0  0
 18 33  1  0  0  0
 20 21  1  0  0  0
 20 34  1  0  0  0
 20 35  1  0  0  0
 21 36  1  0  0  0
 21 37  1  0  0  0
 21 38  1  0  0  0
M  END
> <s_m_entry_id>
20

> <s_m_entry_name>
entry

> <i_lp_mmshare_version>
47013

> <i_f3d_flags>
0

> <s_epik_input>
W0NIM11PYyhbY0hdMSlbY0hdW2NIXWMoYzEyKVtjSF1jKFtjSF1bY0hdMilbQ0BIXShDI04pT0MoPU8pW0NIMl1bQ0gyXVtDSDNd

> <s_epik_cmdline>
J2VwaWtfcHl0aG9uJywgJy1waCcsICc3LjQnLCAnLXRuJywgJzgnLCAnLW1hJywgJzIwMCcsICctaW1hZScsICc8aW5maWxlLm1hZT4nLCAnLW9tYWUnLCAnPG91dGZpbGUubWFlPic=

> <r_epik_Ionization_Penalty>
  0.0000

> <r_epik_Ionization_Penalty_Charging>
  0.0000

> <r_epik_Ionization_Penalty_Neutral>
  0.0000

> <r_epik_State_Penalty>
  0.0000

> <r_epik_Charging_Adjusted_Penalty>
0

> <i_epik_Tot_Q>
0

> <i_epik_Tot_abs_Q>
0

> <s_lp_Force_Field>
OPLS3e

> <r_lp_Energy>
23.153098

> <b_lp_Chiralities_Consistent>
1

> <s_lp_Variant>
CE_M74-1

> <s_m_job_name>
ligprep_92

> <s_m_Source_Path>
/home/andre/Documents/projects/Esterase/data/FINAL_STUFF/Compounds/MAE_external

> <s_m_Source_File>
20.mae

> <i_m_Source_File_Index>
1

> <r_lp_tautomer_probability>
1

> <s_epik_Chemistry_Notes>
This compound has an ester and may undergo hydrolysis at high or low pH.

$$$$
