21
                    3D
 Schrodinger Suite 2021-1.
 47 49  0  0  1  0            999 V2000
    3.5550   -0.2815   -4.7092 C   0  0  0  0  0  0
    3.4292    0.8416   -5.5244 C   0  0  0  0  0  0
    2.2078    1.1563   -6.1170 C   0  0  0  0  0  0
    1.1001    0.3437   -5.8878 C   0  0  0  0  0  0
    1.2168   -0.7740   -5.0603 C   0  0  0  0  0  0
    2.4478   -1.0928   -4.4783 C   0  0  0  0  0  0
    0.1080   -1.5566   -4.8297 O   0  0  0  0  0  0
   -0.4324   -1.6469   -3.5613 C   0  0  0  0  0  0
   -1.2478   -2.7434   -3.2718 C   0  0  0  0  0  0
   -1.8242   -2.8862   -2.0089 C   0  0  0  0  0  0
   -1.5963   -1.9267   -1.0222 C   0  0  0  0  0  0
   -0.7980   -0.8142   -1.2992 C   0  0  0  0  0  0
   -0.2247   -0.6782   -2.5676 C   0  0  0  0  0  0
   -0.5271    0.2357   -0.2320 C   0  0  1  0  0  0
    0.8465    0.1077    0.1594 O   0  0  0  0  0  0
   -0.9348    1.5757   -0.7112 C   0  0  0  0  0  0
   -1.2547    2.6225   -1.0876 N   0  0  0  0  0  0
    1.5653    1.0760    0.7748 C   0  0  0  0  0  0
    3.0332    0.6384    0.9526 C   0  0  2  0  0  0
    1.1432    2.1800    1.1188 O   0  0  0  0  0  0
    4.1072    1.4820    1.6350 C   0  0  0  0  0  0
    4.1724    1.2881    0.1381 C   0  0  2  0  0  0
    3.8098    2.8788    2.2330 C   0  0  0  0  0  0
    5.0917    0.6817    2.5071 C   0  0  0  0  0  0
    3.8628    2.4141   -0.8465 C   0  0  0  0  0  0
    4.4975    2.6341   -2.0116 C   0  0  0  0  0  0
    4.0247    3.9591   -3.0778 Cl  0  0  0  0  0  0
    5.8416    1.6418   -2.5901 Cl  0  0  0  0  0  0
    4.5059   -0.5204   -4.2567 H   0  0  0  0  0  0
    4.2875    1.4737   -5.6990 H   0  0  0  0  0  0
    2.1200    2.0276   -6.7490 H   0  0  0  0  0  0
    0.1500    0.5864   -6.3409 H   0  0  0  0  0  0
    2.5402   -1.9616   -3.8433 H   0  0  0  0  0  0
   -1.4294   -3.4926   -4.0287 H   0  0  0  0  0  0
   -2.4463   -3.7427   -1.7950 H   0  0  0  0  0  0
   -2.0425   -2.0499   -0.0459 H   0  0  0  0  0  0
    0.3900    0.1864   -2.7731 H   0  0  0  0  0  0
   -1.1438    0.0228    0.6421 H   0  0  0  0  0  0
    3.0975   -0.4478    1.0286 H   0  0  0  0  0  0
    4.9401    0.5938   -0.2049 H   0  0  0  0  0  0
    4.7359    3.4335    2.3851 H   0  0  0  0  0  0
    3.3168    2.7889    3.2013 H   0  0  0  0  0  0
    3.1797    3.5067    1.6068 H   0  0  0  0  0  0
    6.0478    1.1991    2.5928 H   0  0  0  0  0  0
    5.2957   -0.3081    2.0964 H   0  0  0  0  0  0
    4.6967    0.5394    3.5136 H   0  0  0  0  0  0
    3.0561    3.0814   -0.5830 H   0  0  0  0  0  0
  1  2  2  0  0  0
  1  6  1  0  0  0
  1 29  1  0  0  0
  2  3  1  0  0  0
  2 30  1  0  0  0
  3  4  2  0  0  0
  3 31  1  0  0  0
  4  5  1  0  0  0
  4 32  1  0  0  0
  5  6  2  0  0  0
  5  7  1  0  0  0
  6 33  1  0  0  0
  7  8  1  0  0  0
  8 13  2  0  0  0
  8  9  1  0  0  0
  9 10  2  0  0  0
  9 34  1  0  0  0
 10 11  1  0  0  0
 10 35  1  0  0  0
 11 12  2  0  0  0
 11 36  1  0  0  0
 12 13  1  0  0  0
 12 14  1  0  0  0
 13 37  1  0  0  0
 14 15  1  0  0  0
 14 16  1  0  0  0
 14 38  1  0  0  0
 15 18  1  0  0  0
 16 17  3  0  0  0
 18 19  1  0  0  0
 18 20  2  0  0  0
 19 22  1  0  0  0
 19 21  1  0  0  0
 19 39  1  0  0  0
 21 22  1  0  0  0
 21 23  1  0  0  0
 21 24  1  0  0  0
 22 25  1  0  0  0
 22 40  1  0  0  0
 23 41  1  0  0  0
 23 42  1  0  0  0
 23 43  1  0  0  0
 24 44  1  0  0  0
 24 45  1  0  0  0
 24 46  1  0  0  0
 25 26  2  0  0  0
 25 47  1  0  0  0
 26 27  1  0  0  0
 26 28  1  0  0  0
M  END
> <s_m_entry_id>
21

> <s_m_entry_name>
entry

> <i_lp_mmshare_version>
47013

> <i_f3d_flags>
0

> <s_epik_input>
W2NIXTFbY0hdW2NIXVtjSF1bY0hdYzFPYzJbY0hdW2NIXVtjSF1jKFtjSF0yKVtDQEhdKEMjTilPQyg9TylbQ0BIXShDMyhbQ0gzXSlbQ0gzXSlbQ0BIXTNbQ0hdPUMoQ2wpQ2w=

> <s_epik_cmdline>
J2VwaWtfcHl0aG9uJywgJy1waCcsICc3LjQnLCAnLXRuJywgJzgnLCAnLW1hJywgJzIwMCcsICctaW1hZScsICc8aW5maWxlLm1hZT4nLCAnLW9tYWUnLCAnPG91dGZpbGUubWFlPic=

> <r_epik_Ionization_Penalty>
  0.0000

> <r_epik_Ionization_Penalty_Charging>
  0.0000

> <r_epik_Ionization_Penalty_Neutral>
  0.0000

> <r_epik_State_Penalty>
  0.0000

> <r_epik_Charging_Adjusted_Penalty>
0

> <i_epik_Tot_Q>
0

> <i_epik_Tot_abs_Q>
0

> <s_lp_Force_Field>
OPLS3e

> <r_lp_Energy>
41.417523

> <b_lp_Chiralities_Consistent>
1

> <s_lp_Variant>
CE1_M76_-1

> <s_m_job_name>
ligprep_93

> <s_m_Source_Path>
/home/andre/Documents/projects/Esterase/data/FINAL_STUFF/Compounds/MAE_external

> <s_m_Source_File>
21.mae

> <i_m_Source_File_Index>
1

> <r_lp_tautomer_probability>
1

> <s_epik_Chemistry_Notes>
This compound has an ester and may undergo hydrolysis at high or low pH.

$$$$
