23
                    3D
 Schrodinger Suite 2021-1.
 44 46  0  0  1  0            999 V2000
   -1.9966   -6.3050    1.8462 C   0  0  0  0  0  0
   -3.1673   -6.9769    2.1894 C   0  0  0  0  0  0
   -4.3402   -6.2715    2.4480 C   0  0  0  0  0  0
   -4.3411   -4.8814    2.3668 C   0  0  0  0  0  0
   -3.1712   -4.1948    2.0371 C   0  0  0  0  0  0
   -1.9980   -4.9150    1.7647 C   0  0  0  0  0  0
   -3.2413   -2.8188    1.9512 O   0  0  0  0  0  0
   -2.1357   -2.0416    2.2118 C   0  0  0  0  0  0
   -1.4584   -2.1231    3.4340 C   0  0  0  0  0  0
   -0.3393   -1.3261    3.6692 C   0  0  0  0  0  0
    0.1048   -0.4403    2.6882 C   0  0  0  0  0  0
   -0.5767   -0.3353    1.4690 C   0  0  0  0  0  0
   -1.6995   -1.1375    1.2413 C   0  0  0  0  0  0
   -0.0889    0.6030    0.3720 C   0  0  2  0  0  0
    0.8273   -0.1307   -0.4436 O   0  0  0  0  0  0
    0.4450    1.8727    0.9140 C   0  0  0  0  0  0
    1.5825    0.4281   -1.4206 C   0  0  0  0  0  0
    1.5279    1.6037   -1.7821 O   0  0  0  0  0  0
    0.8621    2.8654    1.3384 N   0  0  0  0  0  0
    2.5383   -0.5523   -2.1279 C   0  0  2  0  0  0
    2.1965   -2.0321   -2.2417 C   0  0  0  0  0  0
    3.3141   -1.6089   -1.3322 C   0  0  2  0  0  0
    3.1280   -1.9167    0.1502 C   0  0  0  0  0  0
    4.1123   -2.0639    1.0594 C   0  0  0  0  0  0
    5.8199   -1.8758    0.6242 Cl  0  0  0  0  0  0
    3.9196   -2.3913    2.5357 C   0  0  0  0  0  0
    4.3868   -1.3917    3.2834 F   0  0  0  0  0  0
    2.6300   -2.5718    2.8259 F   0  0  0  0  0  0
    4.5803   -3.5081    2.8409 F   0  0  0  0  0  0
   -1.0929   -6.8597    1.6403 H   0  0  0  0  0  0
   -3.1670   -8.0552    2.2513 H   0  0  0  0  0  0
   -5.2454   -6.8000    2.7085 H   0  0  0  0  0  0
   -5.2517   -4.3343    2.5634 H   0  0  0  0  0  0
   -1.0885   -4.4026    1.4872 H   0  0  0  0  0  0
   -1.7960   -2.8100    4.1964 H   0  0  0  0  0  0
    0.1881   -1.3996    4.6088 H   0  0  0  0  0  0
    0.9840    0.1579    2.8789 H   0  0  0  0  0  0
   -2.2276   -1.0744    0.3009 H   0  0  0  0  0  0
   -0.9444    0.8761   -0.2476 H   0  0  0  0  0  0
    3.0495   -0.0796   -2.9674 H   0  0  0  0  0  0
    1.2643   -2.4058   -1.8147 H   0  0  0  0  0  0
    2.4470   -2.5526   -3.1663 H   0  0  0  0  0  0
    4.3175   -1.8076   -1.7096 H   0  0  0  0  0  0
    2.1077   -2.0451    0.4800 H   0  0  0  0  0  0
  1  2  2  0  0  0
  1  6  1  0  0  0
  1 30  1  0  0  0
  2  3  1  0  0  0
  2 31  1  0  0  0
  3  4  2  0  0  0
  3 32  1  0  0  0
  4  5  1  0  0  0
  4 33  1  0  0  0
  5  6  2  0  0  0
  5  7  1  0  0  0
  6 34  1  0  0  0
  7  8  1  0  0  0
  8  9  2  0  0  0
  8 13  1  0  0  0
  9 10  1  0  0  0
  9 35  1  0  0  0
 10 11  2  0  0  0
 10 36  1  0  0  0
 11 12  1  0  0  0
 11 37  1  0  0  0
 12 13  2  0  0  0
 12 14  1  0  0  0
 13 38  1  0  0  0
 14 15  1  0  0  0
 14 16  1  0  0  0
 14 39  1  0  0  0
 15 17  1  0  0  0
 16 19  3  0  0  0
 17 18  2  0  0  0
 17 20  1  0  0  0
 20 22  1  0  0  0
 20 21  1  0  0  0
 20 40  1  0  0  0
 21 22  1  0  0  0
 21 41  1  0  0  0
 21 42  1  0  0  0
 22 23  1  0  0  0
 22 43  1  0  0  0
 23 24  2  0  0  0
 23 44  1  0  0  0
 24 25  1  0  0  0
 24 26  1  0  0  0
 26 27  1  0  0  0
 26 28  1  0  0  0
 26 29  1  0  0  0
M  END
> <s_m_entry_id>
23

> <s_m_entry_name>
entry

> <i_lp_mmshare_version>
47013

> <i_f3d_flags>
0

> <s_epik_input>
W2NIXTFbY0hdW2NIXVtjSF1bY0hdYzFPYzJbY0hdW2NIXVtjSF1jKFtjSF0yKVtDQEBIXShDI04pT0MoPU8pW0NAQEhdM1tDSDJdW0NAQEhdMy9bQ0hdPUMoXENsKUMoRikoRilG

> <s_epik_cmdline>
J2VwaWtfcHl0aG9uJywgJy1waCcsICc3LjQnLCAnLXRuJywgJzgnLCAnLW1hJywgJzIwMCcsICctaW1hZScsICc8aW5maWxlLm1hZT4nLCAnLW9tYWUnLCAnPG91dGZpbGUubWFlPic=

> <r_epik_Ionization_Penalty>
  0.0000

> <r_epik_Ionization_Penalty_Charging>
  0.0000

> <r_epik_Ionization_Penalty_Neutral>
  0.0000

> <r_epik_State_Penalty>
  0.0000

> <r_epik_Charging_Adjusted_Penalty>
0

> <i_epik_Tot_Q>
0

> <i_epik_Tot_abs_Q>
0

> <s_lp_Force_Field>
OPLS3e

> <r_lp_Energy>
34.885997

> <b_lp_Chiralities_Consistent>
1

> <s_lp_Variant>
CE1_M81_-1

> <s_m_job_name>
ligprep_94

> <s_m_Source_Path>
/home/andre/Documents/projects/Esterase/data/FINAL_STUFF/Compounds/MAE_external

> <s_m_Source_File>
23.mae

> <i_m_Source_File_Index>
1

> <r_lp_tautomer_probability>
1

> <s_epik_Chemistry_Notes>
This compound has an ester and may undergo hydrolysis at high or low pH.

$$$$
