25
                    3D
 Schrodinger Suite 2021-1.
 51 53  0  0  1  0            999 V2000
   -1.1346   -1.9914    5.1924 C   0  0  0  0  0  0
   -0.9430   -1.7418    3.8112 C   0  0  0  0  0  0
   -0.6134   -0.4211    3.3844 C   0  0  0  0  0  0
   -0.4865    0.6016    4.3540 C   0  0  0  0  0  0
   -0.6829    0.3219    5.7037 C   0  0  0  0  0  0
   -1.0078   -0.9717    6.1354 C   0  0  0  0  0  0
   -1.0689   -2.7668    2.8420 C   0  0  0  0  0  0
   -0.8780   -2.4863    1.4917 C   0  0  0  0  0  0
   -0.5621   -1.1965    1.0658 C   0  0  0  0  0  0
   -0.4228   -0.1693    2.0033 C   0  0  0  0  0  0
   -1.2175   -1.3240    7.4549 O   0  0  0  0  0  0
   -1.1052   -0.3289    8.4667 C   0  0  0  0  0  0
   -0.3535   -0.9230   -0.4181 C   0  0  2  0  0  0
    1.0520   -0.8883   -0.6754 O   0  0  0  0  0  0
   -1.0783    0.2894   -0.8579 C   0  0  0  0  0  0
    1.5653   -0.6090   -1.8988 C   0  0  0  0  0  0
    3.1090   -0.5562   -1.8818 C   0  0  2  0  0  0
    0.9138   -0.4267   -2.9301 O   0  0  0  0  0  0
   -1.6452    1.2382   -1.2014 N   0  0  0  0  0  0
    3.5064    0.8340   -1.3661 C   0  0  0  0  0  0
    3.7913   -0.9463   -3.2357 C   0  0  0  0  0  0
    3.4361   -2.3793   -3.6938 C   0  0  0  0  0  0
    5.3273   -0.7989   -3.1777 C   0  0  0  0  0  0
    4.0606    0.9529   -0.0878 C   0  0  0  0  0  0
    4.4293    2.2026    0.4021 C   0  0  0  0  0  0
    4.2449    3.3365   -0.3865 C   0  0  0  0  0  0
    3.6949    3.2292   -1.6623 C   0  0  0  0  0  0
    3.3268    1.9797   -2.1529 C   0  0  0  0  0  0
    4.7010    4.8858    0.2220 Cl  0  0  0  0  0  0
   -1.3847   -2.9921    5.5154 H   0  0  0  0  0  0
   -0.2372    1.6054    4.0406 H   0  0  0  0  0  0
   -0.5771    1.1330    6.4080 H   0  0  0  0  0  0
   -1.3157   -3.7707    3.1562 H   0  0  0  0  0  0
   -0.9783   -3.2848    0.7706 H   0  0  0  0  0  0
   -0.1683    0.8313    1.6824 H   0  0  0  0  0  0
   -1.3017   -0.7809    9.4389 H   0  0  0  0  0  0
   -1.8314    0.4725    8.3226 H   0  0  0  0  0  0
   -0.1016    0.0979    8.4986 H   0  0  0  0  0  0
   -0.7801   -1.7531   -0.9838 H   0  0  0  0  0  0
    3.4403   -1.2886   -1.1435 H   0  0  0  0  0  0
    3.4377   -0.2663   -4.0130 H   0  0  0  0  0  0
    3.7487   -3.1202   -2.9572 H   0  0  0  0  0  0
    3.9263   -2.6256   -4.6364 H   0  0  0  0  0  0
    2.3659   -2.5067   -3.8555 H   0  0  0  0  0  0
    5.7585   -1.4289   -2.3988 H   0  0  0  0  0  0
    5.6292    0.2290   -2.9760 H   0  0  0  0  0  0
    5.7890   -1.0819   -4.1245 H   0  0  0  0  0  0
    4.2053    0.0781    0.5292 H   0  0  0  0  0  0
    4.8560    2.2892    1.3907 H   0  0  0  0  0  0
    3.5522    4.1103   -2.2703 H   0  0  0  0  0  0
    2.8977    1.9036   -3.1413 H   0  0  0  0  0  0
  1  2  2  0  0  0
  1  6  1  0  0  0
  1 30  1  0  0  0
  2  3  1  0  0  0
  2  7  1  0  0  0
  3  4  2  0  0  0
  3 10  1  0  0  0
  4  5  1  0  0  0
  4 31  1  0  0  0
  5  6  2  0  0  0
  5 32  1  0  0  0
  6 11  1  0  0  0
  7  8  2  0  0  0
  7 33  1  0  0  0
  8  9  1  0  0  0
  8 34  1  0  0  0
  9 10  2  0  0  0
  9 13  1  0  0  0
 10 35  1  0  0  0
 11 12  1  0  0  0
 12 36  1  0  0  0
 12 37  1  0  0  0
 12 38  1  0  0  0
 13 14  1  0  0  0
 13 15  1  0  0  0
 13 39  1  0  0  0
 14 16  1  0  0  0
 15 19  3  0  0  0
 16 17  1  0  0  0
 16 18  2  0  0  0
 17 20  1  0  0  0
 17 21  1  0  0  0
 17 40  1  0  0  0
 20 28  2  0  0  0
 20 24  1  0  0  0
 21 22  1  0  0  0
 21 23  1  0  0  0
 21 41  1  0  0  0
 22 42  1  0  0  0
 22 43  1  0  0  0
 22 44  1  0  0  0
 23 45  1  0  0  0
 23 46  1  0  0  0
 23 47  1  0  0  0
 24 25  2  0  0  0
 24 48  1  0  0  0
 25 26  1  0  0  0
 25 49  1  0  0  0
 26 27  2  0  0  0
 26 29  1  0  0  0
 27 28  1  0  0  0
 27 50  1  0  0  0
 28 51  1  0  0  0
M  END
> <s_m_entry_id>
25

> <s_m_entry_name>
entry

> <i_lp_mmshare_version>
47013

> <i_f3d_flags>
0

> <s_epik_input>
W0NIM11PYyhbY0hdMSlbY0hdW2NIXWMoYzEyKVtjSF1jKFtjSF1bY0hdMilbQ0BASF0oQyNOKU9DKD1PKVtDQEBIXShbQ0hdKFtDSDNdKVtDSDNdKWMzW2NIXVtjSF1jKENsKVtjSF1bY0hdMw==

> <s_epik_cmdline>
J2VwaWtfcHl0aG9uJywgJy1waCcsICc3LjQnLCAnLXRuJywgJzgnLCAnLW1hJywgJzIwMCcsICctaW1hZScsICc8aW5maWxlLm1hZT4nLCAnLW9tYWUnLCAnPG91dGZpbGUubWFlPic=

> <r_epik_Ionization_Penalty>
  0.0000

> <r_epik_Ionization_Penalty_Charging>
  0.0000

> <r_epik_Ionization_Penalty_Neutral>
  0.0000

> <r_epik_State_Penalty>
  0.0000

> <r_epik_Charging_Adjusted_Penalty>
0

> <i_epik_Tot_Q>
0

> <i_epik_Tot_abs_Q>
0

> <s_lp_Force_Field>
OPLS3e

> <r_lp_Energy>
39.838363

> <b_lp_Chiralities_Consistent>
1

> <s_lp_Variant>
CE_M85-1

> <s_m_job_name>
ligprep_96

> <s_m_Source_Path>
/home/andre/Documents/projects/Esterase/data/FINAL_STUFF/Compounds/MAE_external

> <s_m_Source_File>
25.mae

> <i_m_Source_File_Index>
1

> <r_lp_tautomer_probability>
1

> <s_epik_Chemistry_Notes>
This compound has an ester and may undergo hydrolysis at high or low pH.

$$$$
