31
                    3D
 Schrodinger Suite 2021-1.
 46 48  0  0  1  0            999 V2000
   -0.3321    7.5965   -2.5169 C   0  0  0  0  0  0
    0.6808    7.8924   -1.6069 C   0  0  0  0  0  0
    1.3589    6.8727   -0.9420 C   0  0  0  0  0  0
    1.0170    5.5451   -1.1855 C   0  0  0  0  0  0
   -0.0099    5.2422   -2.0874 C   0  0  0  0  0  0
   -0.6737    6.2686   -2.7606 C   0  0  0  0  0  0
   -0.3622    3.9392   -2.3620 O   0  0  0  0  0  0
   -0.6852    3.0599   -1.3480 C   0  0  0  0  0  0
   -0.4637    1.6984   -1.5702 C   0  0  0  0  0  0
   -0.7914    0.7526   -0.5941 C   0  0  0  0  0  0
   -1.3575    1.1725    0.6122 C   0  0  0  0  0  0
   -1.5941    2.5271    0.8399 C   0  0  0  0  0  0
   -1.2656    3.4669   -0.1364 C   0  0  0  0  0  0
   -0.5344   -0.7283   -0.8443 C   0  0  0  0  0  0
    0.8622   -1.0211   -0.8826 O   0  0  0  0  0  0
    1.6135   -1.0587    0.2433 C   0  0  0  0  0  0
    3.0868   -1.3701   -0.0688 C   0  0  1  0  0  0
    1.1976   -0.8796    1.3902 O   0  0  0  0  0  0
    4.2455   -0.5838    0.5380 C   0  0  0  0  0  0
    3.9671   -1.9686    1.0493 C   0  0  2  0  0  0
    3.4258   -2.1502    2.4599 C   0  0  0  0  0  0
    5.4552   -0.3353   -0.3859 C   0  0  0  0  0  0
    3.9802    0.6131    1.4788 C   0  0  0  0  0  0
    3.8528   -1.5348    3.5782 C   0  0  0  0  0  0
    3.0894   -1.8469    5.1388 Cl  0  0  0  0  0  0
    5.1983   -0.3874    3.6153 Cl  0  0  0  0  0  0
   -0.8496    8.3929   -3.0314 H   0  0  0  0  0  0
    0.9453    8.9224   -1.4176 H   0  0  0  0  0  0
    2.1467    7.1108   -0.2425 H   0  0  0  0  0  0
    1.5447    4.7529   -0.6751 H   0  0  0  0  0  0
   -1.4573    6.0356   -3.4667 H   0  0  0  0  0  0
   -0.0292    1.3762   -2.5057 H   0  0  0  0  0  0
   -1.6128    0.4513    1.3752 H   0  0  0  0  0  0
   -2.0354    2.8488    1.7716 H   0  0  0  0  0  0
   -1.4674    4.5111    0.0518 H   0  0  0  0  0  0
   -1.0383   -1.3398   -0.0933 H   0  0  0  0  0  0
   -0.9751   -0.9981   -1.8044 H   0  0  0  0  0  0
    3.2236   -1.7071   -1.0971 H   0  0  0  0  0  0
    4.6473   -2.7642    0.7409 H   0  0  0  0  0  0
    2.6041   -2.8469    2.5414 H   0  0  0  0  0  0
    6.3711   -0.2140    0.1932 H   0  0  0  0  0  0
    5.3124    0.5674   -0.9803 H   0  0  0  0  0  0
    5.6189   -1.1555   -1.0858 H   0  0  0  0  0  0
    4.8754    0.8601    2.0500 H   0  0  0  0  0  0
    3.1929    0.4229    2.2066 H   0  0  0  0  0  0
    3.6940    1.4987    0.9106 H   0  0  0  0  0  0
  1  2  2  0  0  0
  1  6  1  0  0  0
  1 27  1  0  0  0
  2  3  1  0  0  0
  2 28  1  0  0  0
  3  4  2  0  0  0
  3 29  1  0  0  0
  4  5  1  0  0  0
  4 30  1  0  0  0
  5  6  2  0  0  0
  5  7  1  0  0  0
  6 31  1  0  0  0
  7  8  1  0  0  0
  8 13  2  0  0  0
  8  9  1  0  0  0
  9 10  2  0  0  0
  9 32  1  0  0  0
 10 11  1  0  0  0
 10 14  1  0  0  0
 11 12  2  0  0  0
 11 33  1  0  0  0
 12 13  1  0  0  0
 12 34  1  0  0  0
 13 35  1  0  0  0
 14 15  1  0  0  0
 14 36  1  0  0  0
 14 37  1  0  0  0
 15 16  1  0  0  0
 16 17  1  0  0  0
 16 18  2  0  0  0
 17 20  1  0  0  0
 17 19  1  0  0  0
 17 38  1  0  0  0
 19 20  1  0  0  0
 19 22  1  0  0  0
 19 23  1  0  0  0
 20 21  1  0  0  0
 20 39  1  0  0  0
 21 24  2  0  0  0
 21 40  1  0  0  0
 22 41  1  0  0  0
 22 42  1  0  0  0
 22 43  1  0  0  0
 23 44  1  0  0  0
 23 45  1  0  0  0
 23 46  1  0  0  0
 24 25  1  0  0  0
 24 26  1  0  0  0
M  END
> <s_m_entry_id>
31

> <s_m_entry_name>
entry

> <i_lp_mmshare_version>
47013

> <i_f3d_flags>
0

> <s_epik_input>
W2NIXTFbY0hdW2NIXVtjSF1bY0hdYzFPYzJbY0hdYyhbY0hdW2NIXVtjSF0yKVtDSDJdT0MoPU8pW0NAQEhdKEMzKFtDSDNdKVtDSDNdKVtDQEhdM1tDSF09QyhDbClDbA==

> <s_epik_cmdline>
J2VwaWtfcHl0aG9uJywgJy1waCcsICc3LjQnLCAnLXRuJywgJzgnLCAnLW1hJywgJzIwMCcsICctaW1hZScsICc8aW5maWxlLm1hZT4nLCAnLW9tYWUnLCAnPG91dGZpbGUubWFlPic=

> <r_epik_Ionization_Penalty>
  0.0000

> <r_epik_Ionization_Penalty_Charging>
  0.0000

> <r_epik_Ionization_Penalty_Neutral>
  0.0000

> <r_epik_State_Penalty>
  0.0000

> <r_epik_Charging_Adjusted_Penalty>
0

> <i_epik_Tot_Q>
0

> <i_epik_Tot_abs_Q>
0

> <s_lp_Force_Field>
OPLS3e

> <r_lp_Energy>
42.181784

> <b_lp_Chiralities_Consistent>
1

> <s_lp_Variant>
CE_40159-1

> <s_m_job_name>
ligprep_101

> <s_m_Source_Path>
/home/andre/Documents/projects/Esterase/data/FINAL_STUFF/Compounds/MAE_external

> <s_m_Source_File>
31.mae

> <i_m_Source_File_Index>
1

> <r_lp_tautomer_probability>
1

> <s_epik_Chemistry_Notes>
This compound has an ester and may undergo hydrolysis at high or low pH.

$$$$
