36
                    3D
 Schrodinger Suite 2021-1.
 58 60  0  0  1  0            999 V2000
   -2.1353   -3.9432   -1.6426 C   0  0  0  0  0  0
   -1.7160   -2.5906   -2.2262 C   0  0  0  0  0  0
   -1.2031   -1.7725   -1.1847 O   0  0  0  0  0  0
   -0.7249   -0.5359   -1.4447 C   0  0  0  0  0  0
   -0.6930   -0.0032   -2.5577 O   0  0  0  0  0  0
   -0.2028    0.1290   -0.1801 C   0  0  2  0  0  0
   -0.5457    1.6391   -0.1697 C   0  0  0  0  0  0
   -0.2108    2.3363    1.1636 C   0  0  0  0  0  0
   -0.6185    3.8010    1.1825 C   0  0  0  0  0  0
    0.2717    4.7779    0.7285 C   0  0  0  0  0  0
   -0.1046    6.1184    0.7382 C   0  0  0  0  0  0
   -1.3687    6.4767    1.2020 C   0  0  0  0  0  0
   -2.2601    5.5071    1.6568 C   0  0  0  0  0  0
   -1.8848    4.1663    1.6471 C   0  0  0  0  0  0
    1.2570   -0.1073   -0.0238 N   0  0  1  0  0  0
    1.7758   -1.4752    0.1571 C   0  0  1  0  0  0
    3.3237   -1.4678    0.1057 C   0  0  0  0  0  0
    4.0543   -1.2874    1.4494 C   0  0  0  0  0  0
    3.4580   -0.2121    2.3488 C   0  0  0  0  0  0
    4.2096    0.9319    2.6448 C   0  0  0  0  0  0
    3.6960    1.9434    3.4484 C   0  0  0  0  0  0
    2.4162    1.8216    3.9720 C   0  0  0  0  0  0
    1.6560    0.6921    3.6838 C   0  0  0  0  0  0
    2.1350   -0.3363    2.8535 C   0  0  0  0  0  0
    1.3607   -1.5169    2.6249 N   0  0  0  0  0  0
    1.1664   -2.1527    1.4184 C   0  0  0  0  0  0
    0.5320   -3.2013    1.2686 O   0  0  0  0  0  0
    0.6952   -2.1495    3.8002 C   0  0  0  0  0  0
    1.6843   -2.8282    4.7702 C   0  0  0  0  0  0
    1.2218   -3.1380    5.8895 O   0  0  0  0  0  0
    2.8607   -3.0448    4.3997 O   0  5  0  0  0  0
   -2.5305   -4.5955   -2.4214 H   0  0  0  0  0  0
   -2.9094   -3.8225   -0.8841 H   0  0  0  0  0  0
   -1.2889   -4.4518   -1.1797 H   0  0  0  0  0  0
   -0.9557   -2.7376   -2.9951 H   0  0  0  0  0  0
   -2.5719   -2.1038   -2.6965 H   0  0  0  0  0  0
   -0.7357   -0.3082    0.6658 H   0  0  0  0  0  0
   -0.0363    2.1597   -0.9835 H   0  0  0  0  0  0
   -1.6103    1.7813   -0.3682 H   0  0  0  0  0  0
   -0.6919    1.8153    1.9931 H   0  0  0  0  0  0
    0.8588    2.2673    1.3665 H   0  0  0  0  0  0
    1.2510    4.4997    0.3667 H   0  0  0  0  0  0
    0.5798    6.8763    0.3866 H   0  0  0  0  0  0
   -1.6610    7.5165    1.2084 H   0  0  0  0  0  0
   -3.2380    5.7936    2.0142 H   0  0  0  0  0  0
   -2.5769    3.4143    1.9973 H   0  0  0  0  0  0
    1.8102    0.4193   -0.6847 H   0  0  0  0  0  0
    1.4562   -2.0447   -0.7171 H   0  0  0  0  0  0
    3.6641   -2.4093   -0.3282 H   0  0  0  0  0  0
    3.6686   -0.7035   -0.5936 H   0  0  0  0  0  0
    4.0657   -2.2243    2.0084 H   0  0  0  0  0  0
    5.1054   -1.0727    1.2507 H   0  0  0  0  0  0
    5.2082    1.0399    2.2472 H   0  0  0  0  0  0
    4.2910    2.8177    3.6672 H   0  0  0  0  0  0
    2.0114    2.6003    4.6011 H   0  0  0  0  0  0
    0.6634    0.6343    4.1041 H   0  0  0  0  0  0
    0.1422   -1.3882    4.3481 H   0  0  0  0  0  0
   -0.0427   -2.9001    3.5147 H   0  0  0  0  0  0
  1  2  1  0  0  0
  1 32  1  0  0  0
  1 33  1  0  0  0
  1 34  1  0  0  0
  2  3  1  0  0  0
  2 35  1  0  0  0
  2 36  1  0  0  0
  3  4  1  0  0  0
  4  5  2  0  0  0
  4  6  1  0  0  0
  6  7  1  0  0  0
  6 15  1  0  0  0
  6 37  1  0  0  0
  7  8  1  0  0  0
  7 38  1  0  0  0
  7 39  1  0  0  0
  8  9  1  0  0  0
  8 40  1  0  0  0
  8 41  1  0  0  0
  9 14  1  0  0  0
  9 10  2  0  0  0
 10 11  1  0  0  0
 10 42  1  0  0  0
 11 12  2  0  0  0
 11 43  1  0  0  0
 12 13  1  0  0  0
 12 44  1  0  0  0
 13 14  2  0  0  0
 13 45  1  0  0  0
 14 46  1  0  0  0
 15 16  1  0  0  0
 15 47  1  0  0  0
 16 26  1  0  0  0
 16 17  1  0  0  0
 16 48  1  0  0  0
 17 18  1  0  0  0
 17 49  1  0  0  0
 17 50  1  0  0  0
 18 19  1  0  0  0
 18 51  1  0  0  0
 18 52  1  0  0  0
 19 24  2  0  0  0
 19 20  1  0  0  0
 20 21  2  0  0  0
 20 53  1  0  0  0
 21 22  1  0  0  0
 21 54  1  0  0  0
 22 23  2  0  0  0
 22 55  1  0  0  0
 23 24  1  0  0  0
 23 56  1  0  0  0
 24 25  1  0  0  0
 25 26  1  0  0  0
 25 28  1  0  0  0
 26 27  2  0  0  0
 28 29  1  0  0  0
 28 57  1  0  0  0
 28 58  1  0  0  0
 29 30  2  0  0  0
 29 31  1  0  0  0
M  CHG  1  31  -1
M  END
> <s_m_entry_id>
36

> <s_m_entry_name>
entry

> <i_lp_mmshare_version>
47013

> <i_f3d_flags>
0

> <s_epik_input>
W2NIXTFbY0hdW2NIXVtjSF1bY0hdYzFbQ0gyXVtDSDJdW0NAQEhdKEMoPU8pT1tDSDJdW0NIM10pW05IXVtDQEBIXShbQ0gyXVtDSDJdMilDKD1PKU4oW0NIMl1DKD1PKVtPSF0pYyhjMjMpW2NIXVtjSF1bY0hdW2NIXTM=

> <s_epik_cmdline>
J2VwaWtfcHl0aG9uJywgJy1waCcsICc3LjQnLCAnLXRuJywgJzgnLCAnLW1hJywgJzIwMCcsICctaW1hZScsICc8aW5maWxlLm1hZT4nLCAnLW9tYWUnLCAnPG91dGZpbGUubWFlPic=

> <r_epik_Ionization_Penalty>
  0.1702

> <r_epik_Ionization_Penalty_Charging>
  0.0001

> <r_epik_Ionization_Penalty_Neutral>
  0.1701

> <r_epik_State_Penalty>
  0.1595

> <r_epik_Charging_Adjusted_Penalty>
0.159611265019458

> <i_epik_Tot_Q>
-1

> <i_epik_Tot_abs_Q>
1

> <s_lp_Force_Field>
OPLS3e

> <r_lp_Energy>
55.30429

> <b_lp_Chiralities_Consistent>
1

> <s_lp_Variant>
CE_5362124-1

> <s_m_job_name>
ligprep_103

> <s_m_Source_Path>
/home/andre/Documents/projects/Esterase/data/FINAL_STUFF/Compounds/MAE_external

> <s_m_Source_File>
36.mae

> <i_m_Source_File_Index>
1

> <s_epik_Chemistry_Notes>
This compound has an ester and may undergo hydrolysis at high or low pH.

$$$$
