38
                    3D
 Schrodinger Suite 2021-1.
 61 63  0  0  1  0            999 V2000
   -0.9712   -5.3081    0.3669 C   0  0  0  0  0  0
   -1.1658   -4.4843   -0.9099 C   0  0  0  0  0  0
   -0.7763   -3.1400   -0.6646 O   0  0  0  0  0  0
   -0.8539   -2.2061   -1.6406 C   0  0  0  0  0  0
   -1.2581   -2.4100   -2.7891 O   0  0  0  0  0  0
   -0.3730   -0.8561   -1.1426 C   0  0  2  0  0  0
   -0.9307    0.3375   -1.9659 C   0  0  0  0  0  0
   -2.3694    0.7505   -1.5899 C   0  0  0  0  0  0
   -2.4665    1.3695   -0.2006 C   0  0  0  0  0  0
   -2.9434    0.6122    0.8731 C   0  0  0  0  0  0
   -3.0040    1.1727    2.1463 C   0  0  0  0  0  0
   -2.5890    2.4885    2.3414 C   0  0  0  0  0  0
   -2.1150    3.2498    1.2750 C   0  0  0  0  0  0
   -2.0549    2.6900    0.0016 C   0  0  0  0  0  0
    1.1054   -0.8662   -1.1180 N   0  0  2  0  0  0
    1.6477   -0.2457    0.1140 C   0  0  1  0  0  0
    1.5825   -1.1640    1.3534 C   0  0  0  0  0  0
    3.1310    0.1287   -0.1781 C   0  0  0  0  0  0
    3.8587   -0.7712   -0.6133 O   0  0  0  0  0  0
    3.5911    1.3930    0.0682 N   0  0  0  0  0  0
    2.6960    2.4889    0.5209 C   0  0  0  0  0  0
    3.2647    3.9008    0.3549 C   0  0  0  0  0  0
    2.5463    5.0019    0.8343 C   0  0  0  0  0  0
    3.0526    6.2954    0.7297 C   0  0  0  0  0  0
    4.2964    6.5045    0.1432 C   0  0  0  0  0  0
    5.0224    5.4195   -0.3416 C   0  0  0  0  0  0
    4.5165    4.1177   -0.2511 C   0  0  0  0  0  0
    5.2905    2.9240   -0.7923 C   0  0  0  0  0  0
    5.0605    1.6448    0.0579 C   0  0  1  0  0  0
    5.6646    1.7466    1.4891 C   0  0  0  0  0  0
    6.7636    2.3333    1.6099 O   0  0  0  0  0  0
    5.0467    1.2109    2.4381 O   0  5  0  0  0  0
   -1.2595   -6.3467    0.2048 H   0  0  0  0  0  0
   -1.5780   -4.9178    1.1845 H   0  0  0  0  0  0
    0.0710   -5.2986    0.6876 H   0  0  0  0  0  0
   -0.5659   -4.9047   -1.7188 H   0  0  0  0  0  0
   -2.2111   -4.5205   -1.2209 H   0  0  0  0  0  0
   -0.7577   -0.7487   -0.1280 H   0  0  0  0  0  0
   -0.2947    1.2048   -1.7776 H   0  0  0  0  0  0
   -0.8450    0.1760   -3.0419 H   0  0  0  0  0  0
   -2.7489    1.4660   -2.3210 H   0  0  0  0  0  0
   -3.0416   -0.1058   -1.6662 H   0  0  0  0  0  0
   -3.2570   -0.4110    0.7250 H   0  0  0  0  0  0
   -3.3677    0.5891    2.9791 H   0  0  0  0  0  0
   -2.6336    2.9222    3.3296 H   0  0  0  0  0  0
   -1.7930    4.2682    1.4359 H   0  0  0  0  0  0
   -1.6806    3.2782   -0.8237 H   0  0  0  0  0  0
    1.4341   -0.3377   -1.9138 H   0  0  0  0  0  0
    1.0613    0.6358    0.3579 H   0  0  0  0  0  0
    2.0208   -0.6829    2.2293 H   0  0  0  0  0  0
    2.1136   -2.1036    1.1919 H   0  0  0  0  0  0
    0.5528   -1.4144    1.6094 H   0  0  0  0  0  0
    1.7591    2.4736   -0.0353 H   0  0  0  0  0  0
    2.4419    2.3236    1.5689 H   0  0  0  0  0  0
    1.5846    4.8502    1.3026 H   0  0  0  0  0  0
    2.4845    7.1322    1.1088 H   0  0  0  0  0  0
    4.6975    7.5042    0.0637 H   0  0  0  0  0  0
    5.9859    5.5917   -0.7987 H   0  0  0  0  0  0
    4.9551    2.7338   -1.8129 H   0  0  0  0  0  0
    6.3544    3.1538   -0.8722 H   0  0  0  0  0  0
    5.6143    0.8176   -0.3879 H   0  0  0  0  0  0
  1  2  1  0  0  0
  1 33  1  0  0  0
  1 34  1  0  0  0
  1 35  1  0  0  0
  2  3  1  0  0  0
  2 36  1  0  0  0
  2 37  1  0  0  0
  3  4  1  0  0  0
  4  5  2  0  0  0
  4  6  1  0  0  0
  6  7  1  0  0  0
  6 15  1  0  0  0
  6 38  1  0  0  0
  7  8  1  0  0  0
  7 39  1  0  0  0
  7 40  1  0  0  0
  8  9  1  0  0  0
  8 41  1  0  0  0
  8 42  1  0  0  0
  9 14  1  0  0  0
  9 10  2  0  0  0
 10 11  1  0  0  0
 10 43  1  0  0  0
 11 12  2  0  0  0
 11 44  1  0  0  0
 12 13  1  0  0  0
 12 45  1  0  0  0
 13 14  2  0  0  0
 13 46  1  0  0  0
 14 47  1  0  0  0
 15 16  1  0  0  0
 15 48  1  0  0  0
 16 17  1  0  0  0
 16 18  1  0  0  0
 16 49  1  0  0  0
 17 50  1  0  0  0
 17 51  1  0  0  0
 17 52  1  0  0  0
 18 19  2  0  0  0
 18 20  1  0  0  0
 20 29  1  0  0  0
 20 21  1  0  0  0
 21 22  1  0  0  0
 21 53  1  0  0  0
 21 54  1  0  0  0
 22 27  2  0  0  0
 22 23  1  0  0  0
 23 24  2  0  0  0
 23 55  1  0  0  0
 24 25  1  0  0  0
 24 56  1  0  0  0
 25 26  2  0  0  0
 25 57  1  0  0  0
 26 27  1  0  0  0
 26 58  1  0  0  0
 27 28  1  0  0  0
 28 29  1  0  0  0
 28 59  1  0  0  0
 28 60  1  0  0  0
 29 30  1  0  0  0
 29 61  1  0  0  0
 30 31  2  0  0  0
 30 32  1  0  0  0
M  CHG  1  32  -1
M  END
> <s_m_entry_id>
38

> <s_m_entry_name>
entry

> <i_lp_mmshare_version>
47013

> <i_f3d_flags>
0

> <s_epik_input>
W2NIXTFbY0hdW2NIXVtjSF1bY0hdYzFbQ0gyXVtDSDJdW0NAQEhdKEMoPU8pT1tDSDJdW0NIM10pW05IXVtDQEBIXShbQ0gzXSlDKD1PKU4oW0NIMl0yKVtDQEhdKEMoPU8pW09IXSlbQ0gyXWMoYzIzKVtjSF1bY0hdW2NIXVtjSF0z

> <s_epik_cmdline>
J2VwaWtfcHl0aG9uJywgJy1waCcsICc3LjQnLCAnLXRuJywgJzgnLCAnLW1hJywgJzIwMCcsICctaW1hZScsICc8aW5maWxlLm1hZT4nLCAnLW9tYWUnLCAnPG91dGZpbGUubWFlPic=

> <r_epik_Ionization_Penalty>
  0.0712

> <r_epik_Ionization_Penalty_Charging>
  0.0001

> <r_epik_Ionization_Penalty_Neutral>
  0.0711

> <r_epik_State_Penalty>
  0.0624

> <r_epik_Charging_Adjusted_Penalty>
0.0624777637549313

> <i_epik_Tot_Q>
-1

> <i_epik_Tot_abs_Q>
1

> <s_lp_Force_Field>
OPLS3e

> <r_lp_Energy>
48.425542

> <b_lp_Chiralities_Consistent>
1

> <s_lp_Variant>
CE_54892-1

> <s_m_job_name>
ligprep_105

> <s_m_Source_Path>
/home/andre/Documents/projects/Esterase/data/FINAL_STUFF/Compounds/MAE_external

> <s_m_Source_File>
38.mae

> <i_m_Source_File_Index>
1

> <s_epik_Chemistry_Notes>
This compound has an ester and may undergo hydrolysis at high or low pH.

$$$$
