39
                    3D
 Schrodinger Suite 2021-1.
 59 61  0  0  1  0            999 V2000
   -4.4476   -1.7019   -1.1809 C   0  0  0  0  0  0
   -3.1221   -1.5691   -1.9373 C   0  0  0  0  0  0
   -2.1512   -0.9685   -1.0903 O   0  0  0  0  0  0
   -0.8926   -0.7426   -1.5321 C   0  0  0  0  0  0
   -0.4811   -1.0217   -2.6631 O   0  0  0  0  0  0
   -0.0401   -0.0976   -0.4445 C   0  0  2  0  0  0
   -0.4530    1.3858   -0.2703 C   0  0  0  0  0  0
    0.2059    2.0695    0.9456 C   0  0  0  0  0  0
   -0.2736    3.4986    1.1531 C   0  0  0  0  0  0
    0.3898    4.5559    0.5243 C   0  0  0  0  0  0
   -0.0506    5.8634    0.7143 C   0  0  0  0  0  0
   -1.1527    6.1087    1.5310 C   0  0  0  0  0  0
   -1.8190    5.0585    2.1595 C   0  0  0  0  0  0
   -1.3792    3.7511    1.9700 C   0  0  0  0  0  0
    1.4109   -0.2031   -0.7552 N   0  0  2  0  0  0
    2.0647   -1.5040   -0.5371 C   0  0  1  0  0  0
    3.4166   -1.4875   -1.2925 C   0  0  0  0  0  0
    3.8583   -3.0900   -2.0262 S   0  0  0  0  0  0
    4.0678   -4.0448   -0.4901 C   0  0  1  0  0  0
    2.7599   -4.1610    0.3350 C   0  0  0  0  0  0
    2.5119   -3.0821    1.3119 N   0  0  0  0  0  0
    2.1944   -1.7914    0.9911 C   0  0  0  0  0  0
    2.0346   -0.8977    1.8310 O   0  0  0  0  0  0
    2.6379   -3.4430    2.7441 C   0  0  0  0  0  0
    4.0954   -3.4839    3.2469 C   0  0  0  0  0  0
    4.2841   -4.0957    4.3206 O   0  0  0  0  0  0
    4.9904   -2.9043    2.5907 O   0  5  0  0  0  0
    4.6648   -5.4077   -0.7960 C   0  0  0  0  0  0
    4.0443   -6.6522   -0.9441 C   0  0  0  0  0  0
    4.9148   -7.7054   -1.2360 C   0  0  0  0  0  0
    6.2298   -7.2917   -1.3278 C   0  0  0  0  0  0
    6.3823   -5.5904   -1.0521 S   0  0  0  0  0  0
   -5.2078   -2.1625   -1.8117 H   0  0  0  0  0  0
   -4.8226   -0.7272   -0.8669 H   0  0  0  0  0  0
   -4.3339   -2.3219   -0.2910 H   0  0  0  0  0  0
   -2.7776   -2.5534   -2.2590 H   0  0  0  0  0  0
   -3.2643   -0.9612   -2.8322 H   0  0  0  0  0  0
   -0.2543   -0.5945    0.5026 H   0  0  0  0  0  0
   -0.2339    1.9595   -1.1736 H   0  0  0  0  0  0
   -1.5353    1.4664   -0.1460 H   0  0  0  0  0  0
    0.0135    1.4905    1.8507 H   0  0  0  0  0  0
    1.2920    2.0717    0.8403 H   0  0  0  0  0  0
    1.2432    4.3658   -0.1106 H   0  0  0  0  0  0
    0.4591    6.6836    0.2305 H   0  0  0  0  0  0
   -1.4941    7.1229    1.6781 H   0  0  0  0  0  0
   -2.6726    5.2575    2.7904 H   0  0  0  0  0  0
   -1.8974    2.9374    2.4563 H   0  0  0  0  0  0
    1.9564    0.5437   -0.3491 H   0  0  0  0  0  0
    1.4100   -2.2444   -0.9974 H   0  0  0  0  0  0
    3.3876   -0.7929   -2.1341 H   0  0  0  0  0  0
    4.2322   -1.1423   -0.6542 H   0  0  0  0  0  0
    4.8011   -3.5048    0.1086 H   0  0  0  0  0  0
    1.9255   -4.2030   -0.3648 H   0  0  0  0  0  0
    2.6813   -5.1157    0.8564 H   0  0  0  0  0  0
    2.0843   -2.7518    3.3814 H   0  0  0  0  0  0
    2.1870   -4.4254    2.8880 H   0  0  0  0  0  0
    2.9784   -6.7919   -0.8417 H   0  0  0  0  0  0
    4.5952   -8.7274   -1.3764 H   0  0  0  0  0  0
    7.1007   -7.8934   -1.5425 H   0  0  0  0  0  0
  1  2  1  0  0  0
  1 33  1  0  0  0
  1 34  1  0  0  0
  1 35  1  0  0  0
  2  3  1  0  0  0
  2 36  1  0  0  0
  2 37  1  0  0  0
  3  4  1  0  0  0
  4  5  2  0  0  0
  4  6  1  0  0  0
  6  7  1  0  0  0
  6 15  1  0  0  0
  6 38  1  0  0  0
  7  8  1  0  0  0
  7 39  1  0  0  0
  7 40  1  0  0  0
  8  9  1  0  0  0
  8 41  1  0  0  0
  8 42  1  0  0  0
  9 14  1  0  0  0
  9 10  2  0  0  0
 10 11  1  0  0  0
 10 43  1  0  0  0
 11 12  2  0  0  0
 11 44  1  0  0  0
 12 13  1  0  0  0
 12 45  1  0  0  0
 13 14  2  0  0  0
 13 46  1  0  0  0
 14 47  1  0  0  0
 15 16  1  0  0  0
 15 48  1  0  0  0
 16 22  1  0  0  0
 16 17  1  0  0  0
 16 49  1  0  0  0
 17 18  1  0  0  0
 17 50  1  0  0  0
 17 51  1  0  0  0
 18 19  1  0  0  0
 19 20  1  0  0  0
 19 28  1  0  0  0
 19 52  1  0  0  0
 20 21  1  0  0  0
 20 53  1  0  0  0
 20 54  1  0  0  0
 21 22  1  0  0  0
 21 24  1  0  0  0
 22 23  2  0  0  0
 24 25  1  0  0  0
 24 55  1  0  0  0
 24 56  1  0  0  0
 25 26  2  0  0  0
 25 27  1  0  0  0
 28 32  1  0  0  0
 28 29  2  0  0  0
 29 30  1  0  0  0
 29 57  1  0  0  0
 30 31  2  0  0  0
 30 58  1  0  0  0
 31 32  1  0  0  0
 31 59  1  0  0  0
M  CHG  1  27  -1
M  END
> <s_m_entry_id>
39

> <s_m_entry_name>
entry

> <i_lp_mmshare_version>
47013

> <i_f3d_flags>
0

> <s_epik_input>
W2NIXTFbY0hdW2NIXVtjSF1bY0hdYzFbQ0gyXVtDSDJdW0NAQEhdKEMoPU8pT1tDSDJdW0NIM10pW05IXVtDQEhdMltDSDJdU1tDQEhdKGMzW2NIXVtjSF1bY0hdczMpW0NIMl1OKEMyPU8pW0NIMl1DKD1PKVtPSF0=

> <s_epik_cmdline>
J2VwaWtfcHl0aG9uJywgJy1waCcsICc3LjQnLCAnLXRuJywgJzgnLCAnLW1hJywgJzIwMCcsICctaW1hZScsICc8aW5maWxlLm1hZT4nLCAnLW9tYWUnLCAnPG91dGZpbGUubWFlPic=

> <r_epik_Ionization_Penalty>
  0.0645

> <r_epik_Ionization_Penalty_Charging>
  0.0001

> <r_epik_Ionization_Penalty_Neutral>
  0.0644

> <r_epik_State_Penalty>
  0.0561

> <r_epik_Charging_Adjusted_Penalty>
0.0561889267925201

> <i_epik_Tot_Q>
-1

> <i_epik_Tot_abs_Q>
1

> <s_lp_Force_Field>
OPLS3e

> <r_lp_Energy>
36.05372

> <b_lp_Chiralities_Consistent>
1

> <s_lp_Variant>
CE_443874-1

> <s_m_job_name>
ligprep_106

> <s_m_Source_Path>
/home/andre/Documents/projects/Esterase/data/FINAL_STUFF/Compounds/MAE_external

> <s_m_Source_File>
39.mae

> <i_m_Source_File_Index>
1

> <s_epik_Chemistry_Notes>
This compound has an ester and may undergo hydrolysis at high or low pH.

$$$$
