44
                    3D
 Schrodinger Suite 2021-1.
 58 59  0  0  1  0            999 V2000
   -1.2129    3.8153    0.7490 C   0  0  0  0  0  0
   -0.2910    2.6132    1.0120 C   0  0  0  0  0  0
   -0.4541    1.5195   -0.0768 N   0  3  0  0  0  0
    0.0515    1.9876   -1.4708 C   0  0  0  0  0  0
   -0.1757    0.9212   -2.5549 C   0  0  0  0  0  0
    0.0836    0.1409    0.4047 C   0  0  0  0  0  0
    1.5592    0.1131    0.4694 C   0  0  0  0  0  0
    2.7793    0.0707    0.4707 C   0  0  0  0  0  0
    4.2524   -0.0116    0.3989 C   0  0  0  0  0  0
    4.7417   -0.4352   -0.8753 O   0  0  0  0  0  0
    4.6599   -1.7353   -1.2973 C   0  0  0  0  0  0
    4.2050   -2.6622   -0.6209 O   0  0  0  0  0  0
    5.0994   -1.9442   -2.7795 C   0  0  1  0  0  0
    5.5259   -3.4320   -3.0932 C   0  0  0  0  0  0
    6.7242   -3.9524   -2.2432 C   0  0  0  0  0  0
    7.0065   -5.4457   -2.5024 C   0  0  0  0  0  0
    7.2664   -5.7216   -3.9972 C   0  0  0  0  0  0
    6.1526   -5.1498   -4.8979 C   0  0  0  0  0  0
    5.8780   -3.6635   -4.5909 C   0  0  0  0  0  0
    3.8824   -1.5258   -3.6514 C   0  0  0  0  0  0
    3.9812   -0.4857   -4.5907 C   0  0  0  0  0  0
    2.8903   -0.1362   -5.3822 C   0  0  0  0  0  0
    1.6908   -0.8292   -5.2519 C   0  0  0  0  0  0
    1.5728   -1.8691   -4.3356 C   0  0  0  0  0  0
    2.6621   -2.2152   -3.5419 C   0  0  0  0  0  0
    6.2463   -1.1228   -2.9969 O   0  0  0  0  0  0
   -1.1956    4.4993    1.5980 H   0  0  0  0  0  0
   -2.2475    3.5019    0.6044 H   0  0  0  0  0  0
   -0.9054    4.3895   -0.1246 H   0  0  0  0  0  0
    0.7668    2.8809    1.0410 H   0  0  0  0  0  0
   -0.5660    2.1353    1.9536 H   0  0  0  0  0  0
   -0.5179    2.8852   -1.7083 H   0  0  0  0  0  0
    1.1046    2.2494   -1.3557 H   0  0  0  0  0  0
    0.0832    1.3152   -3.5380 H   0  0  0  0  0  0
   -1.2178    0.6026   -2.5924 H   0  0  0  0  0  0
    0.4449    0.0400   -2.3940 H   0  0  0  0  0  0
   -0.3573   -0.0516    1.3835 H   0  0  0  0  0  0
   -0.2888   -0.6025   -0.2996 H   0  0  0  0  0  0
    4.6436    0.9835    0.6100 H   0  0  0  0  0  0
    4.6051   -0.6755    1.1897 H   0  0  0  0  0  0
    4.6801   -4.0854   -2.8691 H   0  0  0  0  0  0
    7.6155   -3.3522   -2.4322 H   0  0  0  0  0  0
    6.5277   -3.8174   -1.1801 H   0  0  0  0  0  0
    7.8626   -5.7713   -1.9102 H   0  0  0  0  0  0
    6.1574   -6.0413   -2.1637 H   0  0  0  0  0  0
    8.2215   -5.2778   -4.2826 H   0  0  0  0  0  0
    7.3680   -6.7942   -4.1662 H   0  0  0  0  0  0
    6.4265   -5.2685   -5.9469 H   0  0  0  0  0  0
    5.2371   -5.7258   -4.7547 H   0  0  0  0  0  0
    5.0590   -3.3276   -5.2270 H   0  0  0  0  0  0
    6.7251   -3.0413   -4.8839 H   0  0  0  0  0  0
    4.9015    0.0633   -4.7219 H   0  0  0  0  0  0
    2.9767    0.6667   -6.0997 H   0  0  0  0  0  0
    0.8463   -0.5602   -5.8691 H   0  0  0  0  0  0
    0.6406   -2.4064   -4.2414 H   0  0  0  0  0  0
    2.5543   -3.0292   -2.8400 H   0  0  0  0  0  0
    6.0823   -0.2617   -2.6054 H   0  0  0  0  0  0
   -1.4513    1.3882   -0.1738 H   0  0  0  0  0  0
  1  2  1  0  0  0
  1 27  1  0  0  0
  1 28  1  0  0  0
  1 29  1  0  0  0
  2  3  1  0  0  0
  2 30  1  0  0  0
  2 31  1  0  0  0
  3  4  1  0  0  0
  3  6  1  0  0  0
  3 58  1  0  0  0
  4  5  1  0  0  0
  4 32  1  0  0  0
  4 33  1  0  0  0
  5 34  1  0  0  0
  5 35  1  0  0  0
  5 36  1  0  0  0
  6  7  1  0  0  0
  6 37  1  0  0  0
  6 38  1  0  0  0
  7  8  3  0  0  0
  8  9  1  0  0  0
  9 10  1  0  0  0
  9 39  1  0  0  0
  9 40  1  0  0  0
 10 11  1  0  0  0
 11 12  2  0  0  0
 11 13  1  0  0  0
 13 14  1  0  0  0
 13 20  1  0  0  0
 13 26  1  0  0  0
 14 19  1  0  0  0
 14 15  1  0  0  0
 14 41  1  0  0  0
 15 16  1  0  0  0
 15 42  1  0  0  0
 15 43  1  0  0  0
 16 17  1  0  0  0
 16 44  1  0  0  0
 16 45  1  0  0  0
 17 18  1  0  0  0
 17 46  1  0  0  0
 17 47  1  0  0  0
 18 19  1  0  0  0
 18 48  1  0  0  0
 18 49  1  0  0  0
 19 50  1  0  0  0
 19 51  1  0  0  0
 20 25  1  0  0  0
 20 21  2  0  0  0
 21 22  1  0  0  0
 21 52  1  0  0  0
 22 23  2  0  0  0
 22 53  1  0  0  0
 23 24  1  0  0  0
 23 54  1  0  0  0
 24 25  2  0  0  0
 24 55  1  0  0  0
 25 56  1  0  0  0
 26 57  1  0  0  0
M  CHG  1   3   1
M  END
> <s_m_entry_id>
44

> <s_m_entry_name>
entry

> <i_lp_mmshare_version>
47013

> <i_f3d_flags>
0

> <s_epik_input>
W0NIM11bQ0gyXU4oW0NIMl1bQ0gzXSlbQ0gyXUMjQ1tDSDJdT0MoPU8pW0NAQF0oW09IXSkoW0NIXTFbQ0gyXVtDSDJdW0NIMl1bQ0gyXVtDSDJdMSljMltjSF1bY0hdW2NIXVtjSF1bY0hdMg==

> <s_epik_cmdline>
J2VwaWtfcHl0aG9uJywgJy1waCcsICc3LjQnLCAnLXRuJywgJzgnLCAnLW1hJywgJzIwMCcsICctaW1hZScsICc8aW5maWxlLm1hZT4nLCAnLW9tYWUnLCAnPG91dGZpbGUubWFlPic=

> <r_epik_Ionization_Penalty>
  0.2014

> <r_epik_Ionization_Penalty_Charging>
  0.2014

> <r_epik_Ionization_Penalty_Neutral>
  0.0000

> <r_epik_State_Penalty>
  0.1912

> <r_epik_Charging_Adjusted_Penalty>
0.392604916165653

> <i_epik_Tot_Q>
1

> <i_epik_Tot_abs_Q>
1

> <s_lp_Force_Field>
OPLS3e

> <r_lp_Energy>
41.434061

> <b_lp_Chiralities_Consistent>
1

> <s_lp_Variant>
91505-1

> <s_m_job_name>
ligprep_127

> <s_m_Source_Path>
/home/andre/Documents/projects/Esterase/data/FINAL_STUFF/Compounds/MAE_external

> <s_m_Source_File>
44.mae

> <i_m_Source_File_Index>
1

> <s_epik_Chemistry_Notes>
This compound has an ester and may undergo hydrolysis at high or low pH.

$$$$
