46
                    3D
 Schrodinger Suite 2021-1.
 53 55  0  0  1  0            999 V2000
   -2.6496   -4.3748   -0.6044 C   0  0  0  0  0  0
   -2.2869   -3.1817    0.0328 C   0  0  0  0  0  0
   -1.7477   -3.2267    1.3268 C   0  0  0  0  0  0
   -1.5478   -4.4498    1.9607 C   0  0  0  0  0  0
   -1.8971   -5.6298    1.3092 C   0  0  0  0  0  0
   -2.4497   -5.5974    0.0313 C   0  0  0  0  0  0
   -2.5257   -1.8589   -0.6556 C   0  0  0  0  0  0
   -1.6057   -0.7757   -0.4514 N   0  0  0  0  0  0
   -3.5477   -1.6854   -1.3221 O   0  0  0  0  0  0
   -1.9254    0.5720   -0.2997 C   0  0  0  0  0  0
   -0.7137    1.2858   -0.0915 C   0  0  0  0  0  0
    0.3572    0.3429   -0.1546 C   0  0  0  0  0  0
   -0.2120   -0.8892   -0.4502 C   0  0  0  0  0  0
   -3.1661    1.2295   -0.2928 C   0  0  0  0  0  0
   -3.1694    2.6069   -0.0813 C   0  0  0  0  0  0
   -1.9912    3.3348    0.1280 C   0  0  0  0  0  0
   -0.7654    2.6721    0.1257 C   0  0  0  0  0  0
   -1.9470    4.6987    0.3445 O   0  0  0  0  0  0
   -3.1614    5.4412    0.3643 C   0  0  0  0  0  0
    0.5290   -2.1873   -0.7524 C   0  0  0  0  0  0
    1.8316    0.6669    0.0329 C   0  0  0  0  0  0
    2.3598    0.3066    1.4267 C   0  0  0  0  0  0
    1.9991   -0.9389    1.8251 O   0  0  0  0  0  0
    3.0731    1.0880    2.0572 O   0  0  0  0  0  0
    2.3629   -1.4719    3.0979 C   0  0  2  0  0  0
    2.2657   -3.0096    3.0223 C   0  0  0  0  0  0
    3.2369   -3.6417    2.0128 C   0  0  0  0  0  0
    1.4467   -0.9004    4.1988 C   0  0  0  0  0  0
   -3.0808   -4.3633   -1.5957 H   0  0  0  0  0  0
   -1.4770   -2.3188    1.8477 H   0  0  0  0  0  0
   -1.1259   -4.4826    2.9544 H   0  0  0  0  0  0
   -1.6500   -7.1498    2.0975 Cl  0  0  0  0  0  0
   -2.7239   -6.5170   -0.4644 H   0  0  0  0  0  0
   -4.0971    0.7019   -0.4384 H   0  0  0  0  0  0
   -4.1278    3.1034   -0.0787 H   0  0  0  0  0  0
    0.1441    3.2313    0.2891 H   0  0  0  0  0  0
   -2.9375    6.4925    0.5452 H   0  0  0  0  0  0
   -3.8241    5.1029    1.1623 H   0  0  0  0  0  0
   -3.6863    5.3758   -0.5900 H   0  0  0  0  0  0
    1.5469   -1.9983   -1.0926 H   0  0  0  0  0  0
    0.0546   -2.7689   -1.5430 H   0  0  0  0  0  0
    0.6184   -2.8275    0.1240 H   0  0  0  0  0  0
    2.4373    0.1239   -0.6925 H   0  0  0  0  0  0
    2.0263    1.7229   -0.1558 H   0  0  0  0  0  0
    3.3977   -1.2081    3.3254 H   0  0  0  0  0  0
    2.4687   -3.4332    4.0067 H   0  0  0  0  0  0
    1.2459   -3.3036    2.7697 H   0  0  0  0  0  0
    3.1436   -4.7278    2.0125 H   0  0  0  0  0  0
    4.2719   -3.3987    2.2551 H   0  0  0  0  0  0
    3.0414   -3.2958    0.9974 H   0  0  0  0  0  0
    1.6977   -1.3179    5.1743 H   0  0  0  0  0  0
    0.3983   -1.1257    4.0000 H   0  0  0  0  0  0
    1.5443    0.1824    4.2768 H   0  0  0  0  0  0
  1  2  2  0  0  0
  1  6  1  0  0  0
  1 29  1  0  0  0
  2  3  1  0  0  0
  2  7  1  0  0  0
  3  4  2  0  0  0
  3 30  1  0  0  0
  4  5  1  0  0  0
  4 31  1  0  0  0
  5  6  2  0  0  0
  5 32  1  0  0  0
  6 33  1  0  0  0
  7  8  1  0  0  0
  7  9  2  0  0  0
  8 13  1  0  0  0
  8 10  1  0  0  0
 10 11  2  0  0  0
 10 14  1  0  0  0
 11 12  1  0  0  0
 11 17  1  0  0  0
 12 13  2  0  0  0
 12 21  1  0  0  0
 13 20  1  0  0  0
 14 15  2  0  0  0
 14 34  1  0  0  0
 15 16  1  0  0  0
 15 35  1  0  0  0
 16 17  2  0  0  0
 16 18  1  0  0  0
 17 36  1  0  0  0
 18 19  1  0  0  0
 19 37  1  0  0  0
 19 38  1  0  0  0
 19 39  1  0  0  0
 20 40  1  0  0  0
 20 41  1  0  0  0
 20 42  1  0  0  0
 21 22  1  0  0  0
 21 43  1  0  0  0
 21 44  1  0  0  0
 22 23  1  0  0  0
 22 24  2  0  0  0
 23 25  1  0  0  0
 25 26  1  0  0  0
 25 28  1  0  0  0
 25 45  1  0  0  0
 26 27  1  0  0  0
 26 46  1  0  0  0
 26 47  1  0  0  0
 27 48  1  0  0  0
 27 49  1  0  0  0
 27 50  1  0  0  0
 28 51  1  0  0  0
 28 52  1  0  0  0
 28 53  1  0  0  0
M  END
> <s_m_entry_id>
46

> <s_m_entry_name>
entry

> <i_lp_mmshare_version>
47013

> <i_f3d_flags>
0

> <s_epik_input>
W2NIXTFbY0hdW2NIXVtjSF1bY0hdYzFDKD1PKW4yYyhbQ0gzXSljKGMoYzIzKVtjSF1jKFtjSF1bY0hdMylPW0NIM10pW0NIMl1DKD1PKU9bQ0BASF0oW0NIM10pW0NIMl1bQ0gzXQ==

> <s_epik_cmdline>
J2VwaWtfcHl0aG9uJywgJy1waCcsICc3LjQnLCAnLXRuJywgJzgnLCAnLW1hJywgJzIwMCcsICctaW1hZScsICc8aW5maWxlLm1hZT4nLCAnLW9tYWUnLCAnPG91dGZpbGUubWFlPic=

> <r_epik_Ionization_Penalty>
  0.0000

> <r_epik_Ionization_Penalty_Charging>
  0.0000

> <r_epik_Ionization_Penalty_Neutral>
  0.0000

> <r_epik_State_Penalty>
  0.0000

> <r_epik_Charging_Adjusted_Penalty>
0

> <i_epik_Tot_Q>
0

> <i_epik_Tot_abs_Q>
0

> <s_lp_Force_Field>
OPLS3e

> <r_lp_Energy>
44.158524

> <b_lp_Chiralities_Consistent>
1

> <s_lp_Variant>
CE1_124_1-1

> <s_m_job_name>
ligprep_119

> <s_m_Source_Path>
/home/andre/Documents/projects/Esterase/data/FINAL_STUFF/Compounds/MAE_external

> <s_m_Source_File>
46.mae

> <i_m_Source_File_Index>
1

> <r_lp_tautomer_probability>
1

> <s_epik_Chemistry_Notes>
This compound has an ester and may undergo hydrolysis at high or low pH.

$$$$
