49
                    3D
 Schrodinger Suite 2021-1.
 60 63  0  0  1  0            999 V2000
   -3.8801   -4.4052   -0.0689 C   0  0  0  0  0  0
   -3.2352   -3.2968    0.4939 C   0  0  0  0  0  0
   -2.5281   -3.4455    1.6949 C   0  0  0  0  0  0
   -2.4443   -4.6922    2.3089 C   0  0  0  0  0  0
   -3.0758   -5.7900    1.7305 C   0  0  0  0  0  0
   -3.7951   -5.6516    0.5460 C   0  0  0  0  0  0
   -3.3523   -1.9442   -0.1658 C   0  0  0  0  0  0
   -2.2342   -1.0411   -0.1554 N   0  0  0  0  0  0
   -4.4306   -1.5872   -0.6441 O   0  0  0  0  0  0
   -2.2871    0.3453   -0.0161 C   0  0  0  0  0  0
   -0.9554    0.8400   -0.0648 C   0  0  0  0  0  0
   -0.0904   -0.2760   -0.2753 C   0  0  0  0  0  0
   -0.8993   -1.3990   -0.3747 C   0  0  0  0  0  0
   -3.3754    1.2123    0.1745 C   0  0  0  0  0  0
   -3.1061    2.5733    0.3078 C   0  0  0  0  0  0
   -1.8037    3.0868    0.2628 C   0  0  0  0  0  0
   -0.7301    2.2181    0.0795 C   0  0  0  0  0  0
   -1.4891    4.4262    0.3895 O   0  0  0  0  0  0
   -2.5363    5.3745    0.5637 C   0  0  0  0  0  0
   -0.4434   -2.8128   -0.7168 C   0  0  0  0  0  0
    1.4231   -0.2143   -0.3948 C   0  0  0  0  0  0
    1.9237    0.0102   -1.8263 C   0  0  0  0  0  0
    3.2048   -0.4047   -1.9834 O   0  0  0  0  0  0
    1.2168    0.5149   -2.7023 O   0  0  0  0  0  0
    3.8770   -0.3459   -3.2473 C   0  0  1  0  0  0
    5.3769   -0.6125   -2.9947 C   0  0  0  0  0  0
    6.2664   -0.4121   -4.2321 C   0  0  0  0  0  0
    3.2645   -1.3235   -4.2595 C   0  0  0  0  0  0
    3.0214   -0.8923   -5.5665 C   0  0  0  0  0  0
    2.4578   -1.7635   -6.4947 C   0  0  0  0  0  0
    2.1397   -3.0657   -6.1146 C   0  0  0  0  0  0
    2.3817   -3.5053   -4.8150 C   0  0  0  0  0  0
    2.9455   -2.6345   -3.8867 C   0  0  0  0  0  0
   -4.4438   -4.3098   -0.9865 H   0  0  0  0  0  0
   -2.0400   -2.5999    2.1587 H   0  0  0  0  0  0
   -1.8945   -4.8066    3.2315 H   0  0  0  0  0  0
   -2.9723   -7.3385    2.4948 Cl  0  0  0  0  0  0
   -4.2872   -6.5070    0.1072 H   0  0  0  0  0  0
   -4.3932    0.8551    0.2242 H   0  0  0  0  0  0
   -3.9494    3.2313    0.4522 H   0  0  0  0  0  0
    0.2751    2.6114    0.0401 H   0  0  0  0  0  0
   -2.1084    6.3744    0.6351 H   0  0  0  0  0  0
   -3.0951    5.1887    1.4822 H   0  0  0  0  0  0
   -3.2247    5.3702   -0.2828 H   0  0  0  0  0  0
    0.5121   -2.8085   -1.2418 H   0  0  0  0  0  0
   -1.1383   -3.3324   -1.3768 H   0  0  0  0  0  0
   -0.3002   -3.4286    0.1699 H   0  0  0  0  0  0
    1.8264    0.5804    0.2330 H   0  0  0  0  0  0
    1.8691   -1.1370   -0.0219 H   0  0  0  0  0  0
    3.7669    0.6710   -3.6298 H   0  0  0  0  0  0
    5.7304    0.0572   -2.2092 H   0  0  0  0  0  0
    5.5158   -1.6241   -2.6099 H   0  0  0  0  0  0
    7.3171   -0.5619   -3.9823 H   0  0  0  0  0  0
    6.1628    0.5961   -4.6345 H   0  0  0  0  0  0
    6.0153   -1.1172   -5.0249 H   0  0  0  0  0  0
    3.2660    0.1174   -5.8635 H   0  0  0  0  0  0
    2.2670   -1.4307   -7.5044 H   0  0  0  0  0  0
    1.7015   -3.7407   -6.8349 H   0  0  0  0  0  0
    2.1324   -4.5166   -4.5288 H   0  0  0  0  0  0
    3.1310   -2.9771   -2.8789 H   0  0  0  0  0  0
  1  2  2  0  0  0
  1  6  1  0  0  0
  1 34  1  0  0  0
  2  3  1  0  0  0
  2  7  1  0  0  0
  3  4  2  0  0  0
  3 35  1  0  0  0
  4  5  1  0  0  0
  4 36  1  0  0  0
  5  6  2  0  0  0
  5 37  1  0  0  0
  6 38  1  0  0  0
  7  8  1  0  0  0
  7  9  2  0  0  0
  8 13  1  0  0  0
  8 10  1  0  0  0
 10 11  2  0  0  0
 10 14  1  0  0  0
 11 12  1  0  0  0
 11 17  1  0  0  0
 12 13  2  0  0  0
 12 21  1  0  0  0
 13 20  1  0  0  0
 14 15  2  0  0  0
 14 39  1  0  0  0
 15 16  1  0  0  0
 15 40  1  0  0  0
 16 17  2  0  0  0
 16 18  1  0  0  0
 17 41  1  0  0  0
 18 19  1  0  0  0
 19 42  1  0  0  0
 19 43  1  0  0  0
 19 44  1  0  0  0
 20 45  1  0  0  0
 20 46  1  0  0  0
 20 47  1  0  0  0
 21 22  1  0  0  0
 21 48  1  0  0  0
 21 49  1  0  0  0
 22 23  1  0  0  0
 22 24  2  0  0  0
 23 25  1  0  0  0
 25 26  1  0  0  0
 25 28  1  0  0  0
 25 50  1  0  0  0
 26 27  1  0  0  0
 26 51  1  0  0  0
 26 52  1  0  0  0
 27 53  1  0  0  0
 27 54  1  0  0  0
 27 55  1  0  0  0
 28 33  2  0  0  0
 28 29  1  0  0  0
 29 30  2  0  0  0
 29 56  1  0  0  0
 30 31  1  0  0  0
 30 57  1  0  0  0
 31 32  2  0  0  0
 31 58  1  0  0  0
 32 33  1  0  0  0
 32 59  1  0  0  0
 33 60  1  0  0  0
M  END
> <s_m_entry_id>
49

> <s_m_entry_name>
entry

> <i_lp_mmshare_version>
47013

> <i_f3d_flags>
0

> <s_epik_input>
W2NIXTFbY0hdW2NIXVtjSF1bY0hdYzFDKD1PKW4yYyhbQ0gzXSljKGMoYzIzKVtjSF1jKFtjSF1bY0hdMylPW0NIM10pW0NIMl1DKD1PKU9bQ0BASF0oW0NIMl1bQ0gzXSljNFtjSF1bY0hdW2NIXVtjSF1bY0hdNA==

> <s_epik_cmdline>
J2VwaWtfcHl0aG9uJywgJy1waCcsICc3LjQnLCAnLXRuJywgJzgnLCAnLW1hJywgJzIwMCcsICctaW1hZScsICc8aW5maWxlLm1hZT4nLCAnLW9tYWUnLCAnPG91dGZpbGUubWFlPic=

> <r_epik_Ionization_Penalty>
  0.0000

> <r_epik_Ionization_Penalty_Charging>
  0.0000

> <r_epik_Ionization_Penalty_Neutral>
  0.0000

> <r_epik_State_Penalty>
  0.0000

> <r_epik_Charging_Adjusted_Penalty>
0

> <i_epik_Tot_Q>
0

> <i_epik_Tot_abs_Q>
0

> <s_lp_Force_Field>
OPLS3e

> <r_lp_Energy>
54.536571

> <b_lp_Chiralities_Consistent>
1

> <s_lp_Variant>
CE1_127_1-1

> <s_m_job_name>
ligprep_120

> <s_m_Source_Path>
/home/andre/Documents/projects/Esterase/data/FINAL_STUFF/Compounds/MAE_external

> <s_m_Source_File>
49.mae

> <i_m_Source_File_Index>
1

> <r_lp_tautomer_probability>
1

> <s_epik_Chemistry_Notes>
This compound has an ester and may undergo hydrolysis at high or low pH.

$$$$
