5
                    3D
 Schrodinger Suite 2021-1.
 88 91  0  0  1  0            999 V2000
   -7.5548    8.2215   -2.6749 C   0  0  0  0  0  0
   -7.4971    6.7122   -2.4021 C   0  0  0  0  0  0
   -7.6891    6.3625   -0.9156 C   0  0  0  0  0  0
   -7.6384    4.8482   -0.6455 C   0  0  0  0  0  0
   -7.8281    4.4943    0.8422 C   0  0  0  0  0  0
   -7.8286    2.9816    1.1170 C   0  0  0  0  0  0
   -6.5604    2.4203    0.7986 O   0  0  0  0  0  0
   -6.3771    1.0887    0.8275 C   0  0  0  0  0  0
   -7.2111    0.2253    1.1149 O   0  0  0  0  0  0
   -5.0070    0.8363    0.4485 N   0  3  0  0  0  0
   -4.4226   -0.3627    0.2677 C   0  0  0  0  0  0
   -3.0073   -0.3721   -0.1426 C   0  0  0  0  0  0
   -2.4448    0.7131   -0.8372 C   0  0  0  0  0  0
   -1.1082    0.7049   -1.2265 C   0  0  0  0  0  0
   -0.2958   -0.3901   -0.9386 C   0  0  0  0  0  0
   -0.8373   -1.4796   -0.2486 C   0  0  0  0  0  0
   -2.1728   -1.4666    0.1452 C   0  0  0  0  0  0
    1.0414   -0.3419   -1.3668 N   0  0  0  0  0  0
    1.9942   -1.4000   -1.0524 C   0  0  0  0  0  0
    3.3374   -1.1536   -1.7111 C   0  0  0  0  0  0
    4.3609   -0.6543   -1.0634 N   0  0  0  0  0  0
    5.3659   -0.5943   -1.9889 C   0  0  0  0  0  0
    4.9305   -1.0708   -3.2475 C   0  0  0  0  0  0
    3.6074   -1.4124   -3.0450 N   0  0  0  0  0  0
    2.7130   -1.9914   -4.0388 C   0  0  0  0  0  0
    5.7808   -1.1204   -4.3552 C   0  0  0  0  0  0
    7.0861   -0.6628   -4.1654 C   0  0  0  0  0  0
    7.5479   -0.1645   -2.9369 C   0  0  0  0  0  0
    6.6843   -0.1494   -1.8283 C   0  0  0  0  0  0
    8.9911    0.2955   -2.8177 C   0  0  0  0  0  0
    9.8403   -0.2910   -3.4967 O   0  0  0  0  0  0
    9.3265    1.2839   -1.9251 N   0  0  0  0  0  0
   10.7552    1.4679   -1.5928 C   0  0  0  0  0  0
   11.3085    0.3824   -0.6470 C   0  0  0  0  0  0
   12.8170    0.5025   -0.4480 C   0  0  0  0  0  0
   13.2897    0.9379    0.6031 O   0  0  0  0  0  0
   13.5132    0.0900   -1.5280 O   0  0  0  0  0  0
   14.9336    0.1325   -1.5343 C   0  0  0  0  0  0
   15.4497   -0.3582   -2.8905 C   0  0  0  0  0  0
    8.4508    2.3426   -1.5548 C   0  0  0  0  0  0
    8.5155    2.8522   -0.2471 C   0  0  0  0  0  0
    7.6664    3.8971    0.1213 C   0  0  0  0  0  0
    6.7741    4.4211   -0.8140 C   0  0  0  0  0  0
    6.7646    3.8792   -2.0984 C   0  0  0  0  0  0
    7.5835    2.8649   -2.4742 N   0  0  0  0  0  0
   -5.0260   -1.5435    0.4231 N   0  0  0  0  0  0
   -7.4064    8.4309   -3.7346 H   0  0  0  0  0  0
   -6.7810    8.7545   -2.1212 H   0  0  0  0  0  0
   -8.5204    8.6393   -2.3881 H   0  0  0  0  0  0
   -8.2625    6.2132   -2.9984 H   0  0  0  0  0  0
   -6.5386    6.3237   -2.7491 H   0  0  0  0  0  0
   -6.9195    6.8614   -0.3245 H   0  0  0  0  0  0
   -8.6453    6.7600   -0.5715 H   0  0  0  0  0  0
   -8.4097    4.3502   -1.2355 H   0  0  0  0  0  0
   -6.6838    4.4524   -0.9960 H   0  0  0  0  0  0
   -7.0515    4.9724    1.4412 H   0  0  0  0  0  0
   -8.7746    4.9092    1.1913 H   0  0  0  0  0  0
   -8.0497    2.7977    2.1696 H   0  0  0  0  0  0
   -8.6161    2.5010    0.5332 H   0  0  0  0  0  0
   -3.0379    1.5796   -1.0943 H   0  0  0  0  0  0
   -0.7102    1.5557   -1.7614 H   0  0  0  0  0  0
   -0.2361   -2.3430   -0.0052 H   0  0  0  0  0  0
   -2.5465   -2.3257    0.6842 H   0  0  0  0  0  0
    1.4165    0.5508   -1.6546 H   0  0  0  0  0  0
    2.0992   -1.4648    0.0319 H   0  0  0  0  0  0
    1.5941   -2.3591   -1.3838 H   0  0  0  0  0  0
    3.0268   -3.0137   -4.2520 H   0  0  0  0  0  0
    2.7644   -1.4023   -4.9551 H   0  0  0  0  0  0
    1.6823   -1.9928   -3.6850 H   0  0  0  0  0  0
    5.4531   -1.4897   -5.3159 H   0  0  0  0  0  0
    7.7532   -0.6913   -5.0159 H   0  0  0  0  0  0
    7.0200    0.1932   -0.8602 H   0  0  0  0  0  0
   11.3301    1.5006   -2.5207 H   0  0  0  0  0  0
   10.9222    2.4501   -1.1475 H   0  0  0  0  0  0
   10.7921    0.4227    0.3125 H   0  0  0  0  0  0
   11.0969   -0.6093   -1.0482 H   0  0  0  0  0  0
   15.2785    1.1517   -1.3529 H   0  0  0  0  0  0
   15.3290   -0.4967   -0.7353 H   0  0  0  0  0  0
   16.5391   -0.3381   -2.9203 H   0  0  0  0  0  0
   15.0833    0.2703   -3.7029 H   0  0  0  0  0  0
   15.1306   -1.3822   -3.0874 H   0  0  0  0  0  0
    9.2012    2.4418    0.4803 H   0  0  0  0  0  0
    7.6995    4.2963    1.1244 H   0  0  0  0  0  0
    6.1076    5.2289   -0.5497 H   0  0  0  0  0  0
    6.0910    4.2592   -2.8523 H   0  0  0  0  0  0
   -5.9967   -1.5700    0.7035 H   0  0  0  0  0  0
   -4.5164   -2.3987    0.2577 H   0  0  0  0  0  0
   -4.4291    1.6466    0.2842 H   0  0  0  0  0  0
  1  2  1  0  0  0
  1 47  1  0  0  0
  1 48  1  0  0  0
  1 49  1  0  0  0
  2  3  1  0  0  0
  2 50  1  0  0  0
  2 51  1  0  0  0
  3  4  1  0  0  0
  3 52  1  0  0  0
  3 53  1  0  0  0
  4  5  1  0  0  0
  4 54  1  0  0  0
  4 55  1  0  0  0
  5  6  1  0  0  0
  5 56  1  0  0  0
  5 57  1  0  0  0
  6  7  1  0  0  0
  6 58  1  0  0  0
  6 59  1  0  0  0
  7  8  1  0  0  0
  8  9  2  0  0  0
  8 10  1  0  0  0
 10 11  2  0  0  0
 10 88  1  0  0  0
 11 12  1  0  0  0
 11 46  1  0  0  0
 12 17  1  0  0  0
 12 13  2  0  0  0
 13 14  1  0  0  0
 13 60  1  0  0  0
 14 15  2  0  0  0
 14 61  1  0  0  0
 15 16  1  0  0  0
 15 18  1  0  0  0
 16 17  2  0  0  0
 16 62  1  0  0  0
 17 63  1  0  0  0
 18 19  1  0  0  0
 18 64  1  0  0  0
 19 20  1  0  0  0
 19 65  1  0  0  0
 19 66  1  0  0  0
 20 24  1  0  0  0
 20 21  2  0  0  0
 21 22  1  0  0  0
 22 29  1  0  0  0
 22 23  2  0  0  0
 23 24  1  0  0  0
 23 26  1  0  0  0
 24 25  1  0  0  0
 25 67  1  0  0  0
 25 68  1  0  0  0
 25 69  1  0  0  0
 26 27  2  0  0  0
 26 70  1  0  0  0
 27 28  1  0  0  0
 27 71  1  0  0  0
 28 29  2  0  0  0
 28 30  1  0  0  0
 29 72  1  0  0  0
 30 31  2  0  0  0
 30 32  1  0  0  0
 32 33  1  0  0  0
 32 40  1  0  0  0
 33 34  1  0  0  0
 33 73  1  0  0  0
 33 74  1  0  0  0
 34 35  1  0  0  0
 34 75  1  0  0  0
 34 76  1  0  0  0
 35 36  2  0  0  0
 35 37  1  0  0  0
 37 38  1  0  0  0
 38 39  1  0  0  0
 38 77  1  0  0  0
 38 78  1  0  0  0
 39 79  1  0  0  0
 39 80  1  0  0  0
 39 81  1  0  0  0
 40 45  1  0  0  0
 40 41  2  0  0  0
 41 42  1  0  0  0
 41 82  1  0  0  0
 42 43  2  0  0  0
 42 83  1  0  0  0
 43 44  1  0  0  0
 43 84  1  0  0  0
 44 45  2  0  0  0
 44 85  1  0  0  0
 46 86  1  0  0  0
 46 87  1  0  0  0
M  CHG  1  10   1
M  END
> <s_m_entry_id>
5

> <s_m_entry_name>
CCCCCCOC(=O)/N=C(/C1=CC=C(C=C1)NCC2=NC3=C(N2C)C=CC(=C3)C(=O)N(CCC(=O)OCC)C4=CC=CC=N4)\N

> <i_lp_mmshare_version>
47013

> <i_f3d_flags>
0

> <s_epik_input>
W0NIM11bQ0gyXVtDSDJdW0NIMl1bQ0gyXVtDSDJdT0MoPU8pL049QyhbTkgyXSkvYzFbY0hdW2NIXWMoW2NIXVtjSF0xKVtOSF1bQ0gyXWMobjIpbihbQ0gzXSljKGMyMylbY0hdW2NIXWMoW2NIXTMpQyg9TylOKGM0W2NIXVtjSF1bY0hdW2NIXW40KVtDSDJdW0NIMl1DKD1PKU9bQ0gyXVtDSDNd

> <s_epik_cmdline>
J2VwaWtfcHl0aG9uJywgJy1waCcsICc3LjAnLCAnLXRuJywgJzgnLCAnLW1hJywgJzIwMCcsICctaW1hZScsICc8aW5maWxlLm1hZT4nLCAnLW9tYWUnLCAnPG91dGZpbGUubWFlPic=

> <r_epik_Ionization_Penalty>
  0.2853

> <r_epik_Ionization_Penalty_Charging>
  0.1428

> <r_epik_Ionization_Penalty_Neutral>
  0.1425

> <r_epik_State_Penalty>
  0.6477

> <r_epik_Charging_Adjusted_Penalty>
0.790430507982624

> <i_epik_Tot_Q>
1

> <i_epik_Tot_abs_Q>
1

> <s_lp_Force_Field>
OPLS3e

> <r_lp_Energy>
69.174377

> <b_lp_Chiralities_Consistent>
1

> <s_lp_Variant>
CE1_6445226_-1

> <s_m_job_name>
ligprep_30

> <s_m_Source_Path>
/home/andre/Documents/projects/Esterase/data/FINAL_STUFF/Compounds/MAE_external

> <s_m_Source_File>
5.mae

> <i_m_Source_File_Index>
1

> <s_epik_Chemistry_Notes>
This compound has an ester and may undergo hydrolysis at high or low pH. This compound has an imine and may undergo hydrolysis.

$$$$
