50
                    3D
 Schrodinger Suite 2021-1.
 76 79  0  0  1  0            999 V2000
  -12.9198    0.8066   -2.1331 C   0  0  0  0  0  0
  -11.6785    0.3742   -1.6633 C   0  0  0  0  0  0
  -10.4991    0.8546   -2.2540 C   0  0  0  0  0  0
  -10.5816    1.7733   -3.3087 C   0  0  0  0  0  0
  -11.8254    2.2017   -3.7725 C   0  0  0  0  0  0
  -12.9939    1.7184   -3.1855 C   0  0  0  0  0  0
   -9.1613    0.4235   -1.7572 C   0  0  0  0  0  0
   -8.2793    1.4166   -1.0809 C   0  0  0  0  0  0
   -8.8322   -0.7563   -1.8918 O   0  0  0  0  0  0
   -8.8640    2.6611   -0.5871 C   0  0  0  0  0  0
   -8.0903    3.5847    0.0156 C   0  0  0  0  0  0
   -6.6577    3.4238    0.2106 C   0  0  0  0  0  0
   -6.1369    2.2304   -0.2567 N   0  0  0  0  0  0
   -6.9331    1.2541   -0.8914 C   0  0  0  0  0  0
   -6.2333    0.1373   -1.3193 N   0  0  0  0  0  0
   -6.0076    4.3199    0.7560 O   0  0  0  0  0  0
   -4.7416    2.0356   -0.0714 C   0  0  0  0  0  0
   -3.8350    2.4515   -1.0577 C   0  0  0  0  0  0
   -2.4661    2.2591   -0.8705 C   0  0  0  0  0  0
   -1.9894    1.6520    0.2952 C   0  0  0  0  0  0
   -2.8948    1.2336    1.2746 C   0  0  0  0  0  0
   -4.2654    1.4215    1.0963 C   0  0  0  0  0  0
   -4.2739    3.0394   -2.1957 F   0  0  0  0  0  0
   -5.1234    1.0064    2.0581 F   0  0  0  0  0  0
   -0.4966    1.4429    0.4947 C   0  0  0  0  0  0
  -14.1988    2.1356   -3.6350 F   0  0  0  0  0  0
  -11.6361   -0.5051   -0.6333 F   0  0  0  0  0  0
   -0.0316    0.0726   -0.0217 C   0  0  0  0  0  0
    1.4802   -0.0661    0.2211 N   0  3  0  0  0  0
    2.0710   -1.4042   -0.1426 C   0  0  2  0  0  0
    3.3998   -1.4315    0.6000 C   0  0  0  0  0  0
    2.2613   -1.5624   -1.6772 C   0  0  0  0  0  0
    3.7334   -2.7058    0.9101 O   0  0  0  0  0  0
    4.0779   -0.4362    0.8770 O   0  0  0  0  0  0
    4.9665   -3.0318    1.5535 C   0  0  0  0  0  0
    6.1542   -2.9515    0.5592 C   0  0  0  0  0  0
    6.7432   -4.3633    0.4561 C   0  0  0  0  0  0
    5.5993   -5.2876    0.8608 C   0  0  0  0  0  0
    4.8906   -4.5129    1.9720 C   0  0  0  0  0  0
    2.7001   -2.9698   -2.1503 C   0  0  0  0  0  0
    2.9308   -2.9949   -3.6765 C   0  0  0  0  0  0
    1.7335   -4.0797   -1.6831 C   0  0  0  0  0  0
  -13.8269    0.4359   -1.6787 H   0  0  0  0  0  0
   -9.6858    2.1608   -3.7739 H   0  0  0  0  0  0
  -11.8831    2.9097   -4.5862 H   0  0  0  0  0  0
   -9.9229    2.8594   -0.6750 H   0  0  0  0  0  0
   -8.5485    4.4926    0.3807 H   0  0  0  0  0  0
   -6.7096   -0.6276   -1.7770 H   0  0  0  0  0  0
   -5.2389    0.0510   -1.1684 H   0  0  0  0  0  0
   -1.7756    2.5831   -1.6360 H   0  0  0  0  0  0
   -2.5374    0.7606    2.1780 H   0  0  0  0  0  0
    0.0430    2.2460   -0.0110 H   0  0  0  0  0  0
   -0.2665    1.5507    1.5564 H   0  0  0  0  0  0
   -0.4911   -0.7547    0.5221 H   0  0  0  0  0  0
   -0.1755   -0.0344   -1.0970 H   0  0  0  0  0  0
    1.9844    0.6384   -0.2992 H   0  0  0  0  0  0
    1.3800   -2.1432    0.2653 H   0  0  0  0  0  0
    1.3246   -1.3285   -2.1834 H   0  0  0  0  0  0
    2.9777   -0.8209   -2.0377 H   0  0  0  0  0  0
    5.1250   -2.4063    2.4340 H   0  0  0  0  0  0
    5.8204   -2.6452   -0.4338 H   0  0  0  0  0  0
    6.9029   -2.2286    0.8852 H   0  0  0  0  0  0
    7.1207   -4.5853   -0.5430 H   0  0  0  0  0  0
    7.5757   -4.4736    1.1532 H   0  0  0  0  0  0
    4.9241   -5.4452    0.0173 H   0  0  0  0  0  0
    5.9505   -6.2651    1.1934 H   0  0  0  0  0  0
    5.3887   -4.6610    2.9313 H   0  0  0  0  0  0
    3.8655   -4.8740    2.0738 H   0  0  0  0  0  0
    3.6706   -3.1808   -1.7005 H   0  0  0  0  0  0
    2.2085   -3.6194   -4.2021 H   0  0  0  0  0  0
    3.9236   -3.3803   -3.9106 H   0  0  0  0  0  0
    2.8635   -1.9996   -4.1171 H   0  0  0  0  0  0
    0.7813   -3.6760   -1.3383 H   0  0  0  0  0  0
    2.1680   -4.6419   -0.8559 H   0  0  0  0  0  0
    1.5072   -4.8001   -2.4693 H   0  0  0  0  0  0
    1.6672    0.0714    1.2047 H   0  0  0  0  0  0
  1  2  2  0  0  0
  1  6  1  0  0  0
  1 43  1  0  0  0
  2  3  1  0  0  0
  2 27  1  0  0  0
  3  4  2  0  0  0
  3  7  1  0  0  0
  4  5  1  0  0  0
  4 44  1  0  0  0
  5  6  2  0  0  0
  5 45  1  0  0  0
  6 26  1  0  0  0
  7  8  1  0  0  0
  7  9  2  0  0  0
  8 14  2  0  0  0
  8 10  1  0  0  0
 10 11  2  0  0  0
 10 46  1  0  0  0
 11 12  1  0  0  0
 11 47  1  0  0  0
 12 13  1  0  0  0
 12 16  2  0  0  0
 13 14  1  0  0  0
 13 17  1  0  0  0
 14 15  1  0  0  0
 15 48  1  0  0  0
 15 49  1  0  0  0
 17 22  2  0  0  0
 17 18  1  0  0  0
 18 19  2  0  0  0
 18 23  1  0  0  0
 19 20  1  0  0  0
 19 50  1  0  0  0
 20 21  2  0  0  0
 20 25  1  0  0  0
 21 22  1  0  0  0
 21 51  1  0  0  0
 22 24  1  0  0  0
 25 28  1  0  0  0
 25 52  1  0  0  0
 25 53  1  0  0  0
 28 29  1  0  0  0
 28 54  1  0  0  0
 28 55  1  0  0  0
 29 30  1  0  0  0
 29 56  1  0  0  0
 29 76  1  0  0  0
 30 31  1  0  0  0
 30 32  1  0  0  0
 30 57  1  0  0  0
 31 33  1  0  0  0
 31 34  2  0  0  0
 32 40  1  0  0  0
 32 58  1  0  0  0
 32 59  1  0  0  0
 33 35  1  0  0  0
 35 39  1  0  0  0
 35 36  1  0  0  0
 35 60  1  0  0  0
 36 37  1  0  0  0
 36 61  1  0  0  0
 36 62  1  0  0  0
 37 38  1  0  0  0
 37 63  1  0  0  0
 37 64  1  0  0  0
 38 39  1  0  0  0
 38 65  1  0  0  0
 38 66  1  0  0  0
 39 67  1  0  0  0
 39 68  1  0  0  0
 40 41  1  0  0  0
 40 42  1  0  0  0
 40 69  1  0  0  0
 41 70  1  0  0  0
 41 71  1  0  0  0
 41 72  1  0  0  0
 42 73  1  0  0  0
 42 74  1  0  0  0
 42 75  1  0  0  0
M  CHG  1  29   1
M  END
> <s_m_entry_id>
50

> <s_m_entry_name>
entry

> <i_lp_mmshare_version>
47013

> <i_f3d_flags>
0

> <s_epik_input>
RmMxW2NIXWMoRilbY0hdW2NIXWMxQyg9TyljMltjSF1bY0hdYyg9TyluKGMyW05IMl0pLWMzYyhGKVtjSF1jKFtjSF1jM0YpW0NIMl1bQ0gyXVtOSF1bQ0BASF0oW0NIMl1bQ0hdKFtDSDNdKVtDSDNdKUMoPU8pT1tDSF00W0NIMl1bQ0gyXVtDSDJdW0NIMl00

> <s_epik_cmdline>
J2VwaWtfcHl0aG9uJywgJy1waCcsICc3LjQnLCAnLXRuJywgJzgnLCAnLW1hJywgJzIwMCcsICctaW1hZScsICc8aW5maWxlLm1hZT4nLCAnLW9tYWUnLCAnPG91dGZpbGUubWFlPic=

> <r_epik_Ionization_Penalty>
  0.3179

> <r_epik_Ionization_Penalty_Charging>
  0.3179

> <r_epik_Ionization_Penalty_Neutral>
  0.0000

> <r_epik_State_Penalty>
  0.3122

> <r_epik_Charging_Adjusted_Penalty>
0.63008078751052

> <i_epik_Tot_Q>
1

> <i_epik_Tot_abs_Q>
1

> <s_lp_Force_Field>
OPLS3e

> <r_lp_Energy>
69.292663

> <b_lp_Chiralities_Consistent>
1

> <s_lp_Variant>
42605758-1

> <s_m_job_name>
ligprep_2

> <s_m_Source_Path>
/home/andre/Documents/projects/Esterase/data/FINAL_STUFF/Compounds/MAE_external

> <s_m_Source_File>
50.mae

> <i_m_Source_File_Index>
1

> <s_epik_Chemistry_Notes>
This compound has an ester and may undergo hydrolysis at high or low pH. This compound has an imine and may undergo hydrolysis.

$$$$
