51
                    3D
 Schrodinger Suite 2021-1.
 80 82  0  0  1  0            999 V2000
   -0.8073    3.0399   -6.1301 C   0  0  0  0  0  0
   -1.2856    4.4949   -6.0002 C   0  0  0  0  0  0
   -0.6097    5.2686   -4.8492 C   0  0  1  0  0  0
   -1.0454    6.7480   -4.8252 C   0  0  0  0  0  0
   -0.9391    4.6255   -3.6166 O   0  0  0  0  0  0
   -0.1878    4.7820   -2.5017 C   0  0  0  0  0  0
    0.8279    5.4711   -2.3960 O   0  0  0  0  0  0
   -0.7214    3.9661   -1.3242 C   0  0  0  0  0  0
   -0.0258    2.5975   -1.1983 C   0  0  0  0  0  0
   -0.6360    1.7287   -0.0826 C   0  0  0  0  0  0
   -0.0158    0.3222    0.0331 C   0  0  0  0  0  0
    1.4120    0.3041    0.6188 C   0  0  0  0  0  0
    2.0816   -1.0850    0.6214 C   0  0  0  0  0  0
    1.3558   -2.1471    1.4705 C   0  0  0  0  0  0
    2.1145   -3.4851    1.5310 C   0  0  0  0  0  0
    1.3434   -4.5788    2.2916 C   0  0  0  0  0  0
    2.1152   -5.9076    2.3756 C   0  0  0  0  0  0
    1.3143   -7.0240    3.0733 C   0  0  0  0  0  0
    2.0254   -8.2997    3.1419 N   0  0  0  0  0  0
    3.0054   -8.5863    4.0137 C   0  0  0  0  0  0
    3.3383   -7.8473    4.9416 O   0  0  0  0  0  0
    3.5830   -9.7685    3.7338 N   0  0  0  0  0  0
    4.6706  -10.4375    4.4651 C   0  0  0  0  0  0
    5.9904   -9.5946    4.4923 C   0  0  0  0  0  0
    7.1320  -10.3510    5.2215 C   0  0  1  0  0  0
    6.6988  -10.6529    6.6794 C   0  0  0  0  0  0
    5.4226  -11.5337    6.6718 C   0  0  1  0  0  0
    4.2803  -10.7780    5.9429 C   0  0  0  0  0  0
    5.7145  -12.8620    5.9293 C   0  0  0  0  0  0
    6.1423  -12.5549    4.4721 C   0  0  2  0  0  0
    7.4217  -11.6808    4.4812 C   0  0  0  0  0  0
    5.0015  -11.7880    3.7525 C   0  0  0  0  0  0
   -1.2831    2.5488   -6.9792 H   0  0  0  0  0  0
   -1.0468    2.4593   -5.2384 H   0  0  0  0  0  0
    0.2713    2.9905   -6.2814 H   0  0  0  0  0  0
   -1.0886    5.0069   -6.9431 H   0  0  0  0  0  0
   -2.3689    4.5060   -5.8693 H   0  0  0  0  0  0
    0.4699    5.2242   -5.0065 H   0  0  0  0  0  0
   -0.8192    7.2384   -5.7724 H   0  0  0  0  0  0
   -0.5283    7.3042   -4.0432 H   0  0  0  0  0  0
   -2.1172    6.8448   -4.6479 H   0  0  0  0  0  0
   -0.5917    4.5388   -0.4054 H   0  0  0  0  0  0
   -1.7960    3.8257   -1.4481 H   0  0  0  0  0  0
   -0.0958    2.0593   -2.1458 H   0  0  0  0  0  0
    1.0381    2.7498   -1.0114 H   0  0  0  0  0  0
   -0.5580    2.2441    0.8759 H   0  0  0  0  0  0
   -1.7043    1.6171   -0.2744 H   0  0  0  0  0  0
   -0.6660   -0.2821    0.6665 H   0  0  0  0  0  0
   -0.0221   -0.1595   -0.9459 H   0  0  0  0  0  0
    2.0486    0.9813    0.0491 H   0  0  0  0  0  0
    1.3925    0.6994    1.6356 H   0  0  0  0  0  0
    2.1738   -1.4420   -0.4055 H   0  0  0  0  0  0
    3.1026   -0.9730    0.9892 H   0  0  0  0  0  0
    1.2098   -1.7680    2.4832 H   0  0  0  0  0  0
    0.3605   -2.3231    1.0612 H   0  0  0  0  0  0
    2.3193   -3.8314    0.5166 H   0  0  0  0  0  0
    3.0859   -3.3283    2.0025 H   0  0  0  0  0  0
    1.1153   -4.2297    3.3000 H   0  0  0  0  0  0
    0.3831   -4.7474    1.8016 H   0  0  0  0  0  0
    2.3850   -6.2339    1.3699 H   0  0  0  0  0  0
    3.0533   -5.7419    2.9076 H   0  0  0  0  0  0
    1.0042   -6.7011    4.0693 H   0  0  0  0  0  0
    0.3771   -7.1827    2.5390 H   0  0  0  0  0  0
    1.7465   -9.0050    2.4757 H   0  0  0  0  0  0
    3.2372  -10.2734    2.9312 H   0  0  0  0  0  0
    6.3011   -9.3484    3.4753 H   0  0  0  0  0  0
    5.8271   -8.6377    4.9899 H   0  0  0  0  0  0
    8.0318   -9.7343    5.2291 H   0  0  0  0  0  0
    7.5037  -11.1574    7.2162 H   0  0  0  0  0  0
    6.5131   -9.7227    7.2190 H   0  0  0  0  0  0
    5.1213  -11.7485    7.6979 H   0  0  0  0  0  0
    4.0445   -9.8691    6.4980 H   0  0  0  0  0  0
    3.3693  -11.3788    5.9625 H   0  0  0  0  0  0
    6.4981  -13.4197    6.4447 H   0  0  0  0  0  0
    4.8316  -13.5032    5.9382 H   0  0  0  0  0  0
    6.3433  -13.4893    3.9464 H   0  0  0  0  0  0
    7.7529  -11.4820    3.4606 H   0  0  0  0  0  0
    8.2409  -12.2135    4.9665 H   0  0  0  0  0  0
    4.1114  -12.4187    3.7085 H   0  0  0  0  0  0
    5.2844  -11.6064    2.7139 H   0  0  0  0  0  0
  1  2  1  0  0  0
  1 33  1  0  0  0
  1 34  1  0  0  0
  1 35  1  0  0  0
  2  3  1  0  0  0
  2 36  1  0  0  0
  2 37  1  0  0  0
  3  4  1  0  0  0
  3  5  1  0  0  0
  3 38  1  0  0  0
  4 39  1  0  0  0
  4 40  1  0  0  0
  4 41  1  0  0  0
  5  6  1  0  0  0
  6  7  2  0  0  0
  6  8  1  0  0  0
  8  9  1  0  0  0
  8 42  1  0  0  0
  8 43  1  0  0  0
  9 10  1  0  0  0
  9 44  1  0  0  0
  9 45  1  0  0  0
 10 11  1  0  0  0
 10 46  1  0  0  0
 10 47  1  0  0  0
 11 12  1  0  0  0
 11 48  1  0  0  0
 11 49  1  0  0  0
 12 13  1  0  0  0
 12 50  1  0  0  0
 12 51  1  0  0  0
 13 14  1  0  0  0
 13 52  1  0  0  0
 13 53  1  0  0  0
 14 15  1  0  0  0
 14 54  1  0  0  0
 14 55  1  0  0  0
 15 16  1  0  0  0
 15 56  1  0  0  0
 15 57  1  0  0  0
 16 17  1  0  0  0
 16 58  1  0  0  0
 16 59  1  0  0  0
 17 18  1  0  0  0
 17 60  1  0  0  0
 17 61  1  0  0  0
 18 19  1  0  0  0
 18 62  1  0  0  0
 18 63  1  0  0  0
 19 20  1  0  0  0
 19 64  1  0  0  0
 20 21  2  0  0  0
 20 22  1  0  0  0
 22 23  1  0  0  0
 22 65  1  0  0  0
 23 28  1  0  0  0
 23 32  1  0  0  0
 23 24  1  0  0  0
 24 25  1  0  0  0
 24 66  1  0  0  0
 24 67  1  0  0  0
 25 31  1  0  0  0
 25 26  1  0  0  0
 25 68  1  0  0  0
 26 27  1  0  0  0
 26 69  1  0  0  0
 26 70  1  0  0  0
 27 28  1  0  0  0
 27 29  1  0  0  0
 27 71  1  0  0  0
 28 72  1  0  0  0
 28 73  1  0  0  0
 29 30  1  0  0  0
 29 74  1  0  0  0
 29 75  1  0  0  0
 30 31  1  0  0  0
 30 32  1  0  0  0
 30 76  1  0  0  0
 31 77  1  0  0  0
 31 78  1  0  0  0
 32 79  1  0  0  0
 32 80  1  0  0  0
M  END
> <s_m_entry_id>
51

> <s_m_entry_name>
entry

> <i_lp_mmshare_version>
47013

> <i_f3d_flags>
0

> <s_epik_input>
W0NIM11bQ0gyXVtDQEBIXShbQ0gzXSlPQyg9TylbQ0gyXVtDSDJdW0NIMl1bQ0gyXVtDSDJdW0NIMl1bQ0gyXVtDSDJdW0NIMl1bQ0gyXVtDSDJdW05IXUMoPU8pW05IXUMxMltDSDJdW0NASF0zW0NIMl1bQ0BASF0oW0NIMl0xKVtDSDJdW0NASF0oW0NIMl0zKVtDSDJdMg==

> <s_epik_cmdline>
J2VwaWtfcHl0aG9uJywgJy1waCcsICc3LjQnLCAnLXRuJywgJzgnLCAnLW1hJywgJzIwMCcsICctaW1hZScsICc8aW5maWxlLm1hZT4nLCAnLW9tYWUnLCAnPG91dGZpbGUubWFlPic=

> <r_epik_Ionization_Penalty>
  0.0000

> <r_epik_Ionization_Penalty_Charging>
  0.0000

> <r_epik_Ionization_Penalty_Neutral>
  0.0000

> <r_epik_State_Penalty>
  0.0000

> <r_epik_Charging_Adjusted_Penalty>
0

> <i_epik_Tot_Q>
0

> <i_epik_Tot_abs_Q>
0

> <s_lp_Force_Field>
OPLS3e

> <r_lp_Energy>
29.179467

> <b_lp_Chiralities_Consistent>
1

> <s_lp_Variant>
44422339-1

> <s_m_job_name>
ligprep_5

> <s_m_Source_Path>
/home/andre/Documents/projects/Esterase/data/FINAL_STUFF/Compounds/MAE_external

> <s_m_Source_File>
51.mae

> <i_m_Source_File_Index>
1

> <r_lp_tautomer_probability>
1

> <s_epik_Chemistry_Notes>
This compound has an ester and may undergo hydrolysis at high or low pH.

$$$$
