54
                    3D
 Schrodinger Suite 2021-1.
 65 67  0  0  1  0            999 V2000
   -0.9607    1.4258   -1.2614 C   0  0  0  0  0  0
    0.0372    1.1396   -0.1211 C   0  0  1  0  0  0
   -0.4707    1.6868    1.1951 C   0  0  0  0  0  0
   -1.6359    1.5516    1.5789 O   0  0  0  0  0  0
    0.5059    2.3395    1.8729 O   0  0  0  0  0  0
    0.2603    2.9605    3.1358 C   0  0  0  0  0  0
    1.3634    4.0034    3.3692 C   0  0  0  0  0  0
    0.1985    1.9214    4.2730 C   0  0  0  0  0  0
    0.3280   -0.2882   -0.0039 N   0  0  3  0  0  0
    1.8138   -0.9621   -0.4808 P   0  0  1  0  0  0
    1.9446   -2.4419   -0.3848 O   0  0  0  0  0  0
    2.0029   -0.3818   -1.9946 O   0  0  0  0  0  0
    3.2367   -0.5373   -2.6783 C   0  0  0  0  0  0
    3.9542    0.8208   -2.8171 C   0  0  2  0  0  0
    5.3608    0.7458   -3.4232 C   0  0  2  0  0  0
    6.1205    1.8828   -2.7364 C   0  0  1  0  0  0
    5.4584    1.8937   -1.3485 C   0  0  1  0  0  0
    4.1579    1.4085   -1.5349 O   0  0  0  0  0  0
    6.1223    1.2065   -0.2368 N   0  0  0  0  0  0
    6.0561   -0.1637   -0.1262 C   0  0  0  0  0  0
    6.5983   -0.8578    0.8929 C   0  0  0  0  0  0
    7.2844   -0.1422    1.9520 C   0  0  0  0  0  0
    7.7470   -0.6747    2.9579 O   0  0  0  0  0  0
    7.3440    1.2041    1.7270 N   0  0  0  0  0  0
    6.8253    1.9499    0.6973 C   0  0  0  0  0  0
    7.0047    3.1682    0.6745 O   0  0  0  0  0  0
    7.6588    1.7659   -2.7263 C   0  0  0  0  0  0
    5.8293    3.0428   -3.3364 F   0  0  0  0  0  0
    5.3495    0.8340   -4.8367 O   0  0  0  0  0  0
    2.9210   -0.1159    0.3701 O   0  0  0  0  0  0
    3.1190   -0.1140    1.7284 C   0  0  0  0  0  0
    2.8674   -1.2337    2.5293 C   0  0  0  0  0  0
    3.1500   -1.1910    3.8921 C   0  0  0  0  0  0
    3.6897   -0.0343    4.4500 C   0  0  0  0  0  0
    3.9417    1.0836    3.6587 C   0  0  0  0  0  0
    3.6517    1.0422    2.2981 C   0  0  0  0  0  0
   -1.1506    2.4949   -1.3691 H   0  0  0  0  0  0
   -1.9203    0.9304   -1.1038 H   0  0  0  0  0  0
   -0.5673    1.0750   -2.2163 H   0  0  0  0  0  0
    0.9685    1.6453   -0.3835 H   0  0  0  0  0  0
   -0.6913    3.4941    3.0937 H   0  0  0  0  0  0
    1.2229    4.5182    4.3201 H   0  0  0  0  0  0
    1.3580    4.7604    2.5844 H   0  0  0  0  0  0
    2.3532    3.5472    3.3821 H   0  0  0  0  0  0
    0.0489    2.4053    5.2384 H   0  0  0  0  0  0
    1.1169    1.3385    4.3321 H   0  0  0  0  0  0
   -0.6262    1.2230    4.1320 H   0  0  0  0  0  0
   -0.4810   -0.8977    0.1215 H   0  0  0  0  0  0
    3.8691   -1.2861   -2.2008 H   0  0  0  0  0  0
    3.0175   -0.9253   -3.6734 H   0  0  0  0  0  0
    3.3166    1.5096   -3.3750 H   0  0  0  0  0  0
    5.8263   -0.2000   -3.1416 H   0  0  0  0  0  0
    5.2971    2.9222   -1.0155 H   0  0  0  0  0  0
    5.5262   -0.6450   -0.9291 H   0  0  0  0  0  0
    6.5169   -1.9338    0.9385 H   0  0  0  0  0  0
    7.8319    1.7334    2.4343 H   0  0  0  0  0  0
    7.9903    0.8330   -2.2692 H   0  0  0  0  0  0
    8.1137    2.5874   -2.1718 H   0  0  0  0  0  0
    8.0599    1.7918   -3.7398 H   0  0  0  0  0  0
    6.2562    0.8174   -5.1519 H   0  0  0  0  0  0
    2.4681   -2.1417    2.1054 H   0  0  0  0  0  0
    2.9598   -2.0546    4.5120 H   0  0  0  0  0  0
    3.9141   -0.0037    5.5060 H   0  0  0  0  0  0
    4.3605    1.9772    4.0970 H   0  0  0  0  0  0
    3.8521    1.9046    1.6795 H   0  0  0  0  0  0
  1  2  1  0  0  0
  1 37  1  0  0  0
  1 38  1  0  0  0
  1 39  1  0  0  0
  2  3  1  0  0  0
  2  9  1  0  0  0
  2 40  1  0  0  0
  3  4  2  0  0  0
  3  5  1  0  0  0
  5  6  1  0  0  0
  6  7  1  0  0  0
  6  8  1  0  0  0
  6 41  1  0  0  0
  7 42  1  0  0  0
  7 43  1  0  0  0
  7 44  1  0  0  0
  8 45  1  0  0  0
  8 46  1  0  0  0
  8 47  1  0  0  0
  9 10  1  0  0  0
  9 48  1  0  0  0
 10 11  2  0  0  0
 10 12  1  0  0  0
 10 30  1  0  0  0
 12 13  1  0  0  0
 13 14  1  0  0  0
 13 49  1  0  0  0
 13 50  1  0  0  0
 14 18  1  0  0  0
 14 15  1  0  0  0
 14 51  1  0  0  0
 15 16  1  0  0  0
 15 29  1  0  0  0
 15 52  1  0  0  0
 16 17  1  0  0  0
 16 27  1  0  0  0
 16 28  1  0  0  0
 17 18  1  0  0  0
 17 19  1  0  0  0
 17 53  1  0  0  0
 19 25  1  0  0  0
 19 20  1  0  0  0
 20 21  2  0  0  0
 20 54  1  0  0  0
 21 22  1  0  0  0
 21 55  1  0  0  0
 22 23  2  0  0  0
 22 24  1  0  0  0
 24 25  1  0  0  0
 24 56  1  0  0  0
 25 26  2  0  0  0
 27 57  1  0  0  0
 27 58  1  0  0  0
 27 59  1  0  0  0
 29 60  1  0  0  0
 30 31  1  0  0  0
 31 36  1  0  0  0
 31 32  2  0  0  0
 32 33  1  0  0  0
 32 61  1  0  0  0
 33 34  2  0  0  0
 33 62  1  0  0  0
 34 35  1  0  0  0
 34 63  1  0  0  0
 35 36  2  0  0  0
 35 64  1  0  0  0
 36 65  1  0  0  0
M  END
> <s_m_entry_id>
54

> <s_m_entry_name>
entry

> <i_lp_mmshare_version>
47013

> <i_f3d_flags>
0

> <s_epik_input>
W2NIXTFbY0hdW2NIXVtjSF1bY0hdYzFPW1BAQF0oPU8pKFtOSF1bQ0BASF0oW0NIM10pQyg9TylPW0NIXShbQ0gzXSlbQ0gzXSlPW0NIMl1bQ0BIXShbQ0BASF0oW09IXSlbQ0BdMihGKVtDSDNdKU9bQ0BIXTJuM1tjSF1bY0hdYyg9TylbbkhdYzM9Tw==

> <s_epik_cmdline>
J2VwaWtfcHl0aG9uJywgJy1waCcsICc3LjA0JywgJy10bicsICc4JywgJy1tYScsICcyMDAnLCAnLWltYWUnLCAnPGluZmlsZS5tYWU+JywgJy1vbWFlJywgJzxvdXRmaWxlLm1hZT4n

> <r_epik_Ionization_Penalty>
  0.0042

> <r_epik_Ionization_Penalty_Charging>
  0.0041

> <r_epik_Ionization_Penalty_Neutral>
  0.0001

> <r_epik_State_Penalty>
  0.0030

> <r_epik_Charging_Adjusted_Penalty>
0.00710693974350475

> <i_epik_Tot_Q>
0

> <i_epik_Tot_abs_Q>
0

> <s_lp_Force_Field>
OPLS3e

> <r_lp_Energy>
22.137926

> <b_lp_Chiralities_Consistent>
1

> <s_lp_Variant>
45375806-1

> <s_m_job_name>
ligprep_6

> <s_m_Source_Path>
/home/andre/Documents/projects/Esterase/data/FINAL_STUFF/Compounds/MAE_external

> <s_m_Source_File>
54.mae

> <i_m_Source_File_Index>
1

> <r_lp_tautomer_probability>
0.999537046341301

> <s_epik_Chemistry_Notes>
This compound has an ester and may undergo hydrolysis at high or low pH. This compound contains an acetal/aminal-like group ( X-CH(R)-Y where X, Y are N, S, or O) that may be acid/base labile, releasing an aldehyde.

$$$$
