55
                    3D
 Schrodinger Suite 2021-1.
 79 82  0  0  1  0            999 V2000
    1.4189    6.2612    3.1064 C   0  0  0  0  0  0
    0.0746    5.8829    3.0495 C   0  0  0  0  0  0
   -0.8810    6.6062    3.7831 C   0  0  0  0  0  0
   -0.4843    7.6881    4.5648 C   0  0  0  0  0  0
    0.8588    8.0516    4.6155 C   0  0  0  0  0  0
    1.8120    7.3434    3.8889 C   0  0  0  0  0  0
   -0.2145    4.7823    2.2218 N   0  0  0  0  0  0
   -1.3806    4.1273    2.0368 C   0  0  0  0  0  0
   -1.2683    3.0786    1.0635 C   0  0  0  0  0  0
   -2.4539    4.3491    2.5955 O   0  0  0  0  0  0
   -1.6415    3.1782   -0.2894 C   0  0  0  0  0  0
   -1.3401    1.9511   -0.8742 C   0  0  0  0  0  0
   -0.7595    1.1304    0.0813 N   0  0  0  0  0  0
   -0.6775    1.8280    1.2834 C   0  0  0  0  0  0
   -2.2573    4.3499   -0.9896 C   0  0  0  0  0  0
   -0.1927   -0.1934   -0.2097 C   0  0  0  0  0  0
    1.1722   -0.0710   -0.9268 C   0  0  0  0  0  0
    1.8700   -1.4232   -1.1851 C   0  0  2  0  0  0
    3.2829   -1.2424   -1.7925 C   0  0  0  0  0  0
    1.0596   -2.2129   -2.0364 O   0  0  0  0  0  0
    4.1374   -2.5333   -1.8922 C   0  0  2  0  0  0
    5.6189   -2.2762   -2.2596 C   0  0  0  0  0  0
    3.6077   -3.3874   -2.8861 O   0  0  0  0  0  0
    6.4787   -1.6461   -1.1542 C   0  0  0  0  0  0
    7.7114   -1.3326   -1.6015 O   0  0  0  0  0  0
    6.0579   -1.4639   -0.0087 O   0  0  0  0  0  0
    8.6672   -0.7428   -0.7322 C   0  0  0  0  0  0
   -1.6417    5.6050   -0.9441 C   0  0  0  0  0  0
   -2.2134    6.6879   -1.6064 C   0  0  0  0  0  0
   -3.3990    6.5144   -2.3165 C   0  0  0  0  0  0
   -4.0183    5.2679   -2.3698 C   0  0  0  0  0  0
   -3.4475    4.1856   -1.7056 C   0  0  0  0  0  0
   -1.5468    1.5477   -2.2981 C   0  0  0  0  0  0
   -2.4173    0.5038   -2.6235 C   0  0  0  0  0  0
   -2.6113    0.1499   -3.9559 C   0  0  0  0  0  0
   -1.9403    0.8448   -4.9601 C   0  0  0  0  0  0
   -1.0795    1.8936   -4.6428 C   0  0  0  0  0  0
   -0.8855    2.2481   -3.3106 C   0  0  0  0  0  0
   -0.0766    1.2742    2.5874 C   0  0  0  0  0  0
    1.4048    0.8598    2.4863 C   0  0  0  0  0  0
   -0.9671    0.1970    3.2373 C   0  0  0  0  0  0
   -2.1293    0.5009   -6.2539 F   0  0  0  0  0  0
    2.1674    5.7194    2.5456 H   0  0  0  0  0  0
   -1.9306    6.3616    3.7624 H   0  0  0  0  0  0
   -1.2177    8.2459    5.1284 H   0  0  0  0  0  0
    1.1631    8.8917    5.2219 H   0  0  0  0  0  0
    2.8516    7.6330    3.9307 H   0  0  0  0  0  0
    0.5743    4.4414    1.6927 H   0  0  0  0  0  0
   -0.1110   -0.7782    0.7012 H   0  0  0  0  0  0
   -0.8982   -0.7527   -0.8219 H   0  0  0  0  0  0
    1.0453    0.4525   -1.8757 H   0  0  0  0  0  0
    1.8331    0.5596   -0.3314 H   0  0  0  0  0  0
    1.9676   -1.9492   -0.2340 H   0  0  0  0  0  0
    3.2102   -0.7695   -2.7739 H   0  0  0  0  0  0
    3.8169   -0.5257   -1.1678 H   0  0  0  0  0  0
    0.1873   -2.2898   -1.6430 H   0  0  0  0  0  0
    4.0892   -3.0774   -0.9472 H   0  0  0  0  0  0
    6.0931   -3.2203   -2.5314 H   0  0  0  0  0  0
    5.6698   -1.6367   -3.1416 H   0  0  0  0  0  0
    2.6664   -3.4914   -2.7241 H   0  0  0  0  0  0
    9.5932   -0.5543   -1.2755 H   0  0  0  0  0  0
    8.8940   -1.4027    0.1064 H   0  0  0  0  0  0
    8.3061    0.2081   -0.3376 H   0  0  0  0  0  0
   -0.7171    5.7440   -0.4035 H   0  0  0  0  0  0
   -1.7378    7.6569   -1.5715 H   0  0  0  0  0  0
   -3.8416    7.3542   -2.8317 H   0  0  0  0  0  0
   -4.9369    5.1411   -2.9233 H   0  0  0  0  0  0
   -3.9317    3.2206   -1.7485 H   0  0  0  0  0  0
   -2.9466   -0.0294   -1.8471 H   0  0  0  0  0  0
   -3.2820   -0.6578   -4.2099 H   0  0  0  0  0  0
   -0.5660    2.4309   -5.4264 H   0  0  0  0  0  0
   -0.2206    3.0641   -3.0664 H   0  0  0  0  0  0
   -0.0707    2.0859    3.3158 H   0  0  0  0  0  0
    2.0011    1.6366    2.0064 H   0  0  0  0  0  0
    1.5532   -0.0673    1.9374 H   0  0  0  0  0  0
    1.8259    0.6970    3.4790 H   0  0  0  0  0  0
   -1.9518    0.6010    3.4764 H   0  0  0  0  0  0
   -0.5304   -0.1617    4.1701 H   0  0  0  0  0  0
   -1.1207   -0.6720    2.6009 H   0  0  0  0  0  0
  1  2  2  0  0  0
  1  6  1  0  0  0
  1 43  1  0  0  0
  2  3  1  0  0  0
  2  7  1  0  0  0
  3  4  2  0  0  0
  3 44  1  0  0  0
  4  5  1  0  0  0
  4 45  1  0  0  0
  5  6  2  0  0  0
  5 46  1  0  0  0
  6 47  1  0  0  0
  7  8  1  0  0  0
  7 48  1  0  0  0
  8  9  1  0  0  0
  8 10  2  0  0  0
  9 14  2  0  0  0
  9 11  1  0  0  0
 11 12  2  0  0  0
 11 15  1  0  0  0
 12 13  1  0  0  0
 12 33  1  0  0  0
 13 14  1  0  0  0
 13 16  1  0  0  0
 14 39  1  0  0  0
 15 32  2  0  0  0
 15 28  1  0  0  0
 16 17  1  0  0  0
 16 49  1  0  0  0
 16 50  1  0  0  0
 17 18  1  0  0  0
 17 51  1  0  0  0
 17 52  1  0  0  0
 18 19  1  0  0  0
 18 20  1  0  0  0
 18 53  1  0  0  0
 19 21  1  0  0  0
 19 54  1  0  0  0
 19 55  1  0  0  0
 20 56  1  0  0  0
 21 22  1  0  0  0
 21 23  1  0  0  0
 21 57  1  0  0  0
 22 24  1  0  0  0
 22 58  1  0  0  0
 22 59  1  0  0  0
 23 60  1  0  0  0
 24 25  1  0  0  0
 24 26  2  0  0  0
 25 27  1  0  0  0
 27 61  1  0  0  0
 27 62  1  0  0  0
 27 63  1  0  0  0
 28 29  2  0  0  0
 28 64  1  0  0  0
 29 30  1  0  0  0
 29 65  1  0  0  0
 30 31  2  0  0  0
 30 66  1  0  0  0
 31 32  1  0  0  0
 31 67  1  0  0  0
 32 68  1  0  0  0
 33 38  2  0  0  0
 33 34  1  0  0  0
 34 35  2  0  0  0
 34 69  1  0  0  0
 35 36  1  0  0  0
 35 70  1  0  0  0
 36 37  2  0  0  0
 36 42  1  0  0  0
 37 38  1  0  0  0
 37 71  1  0  0  0
 38 72  1  0  0  0
 39 40  1  0  0  0
 39 41  1  0  0  0
 39 73  1  0  0  0
 40 74  1  0  0  0
 40 75  1  0  0  0
 40 76  1  0  0  0
 41 77  1  0  0  0
 41 78  1  0  0  0
 41 79  1  0  0  0
M  END
> <s_m_entry_id>
55

> <s_m_entry_name>
entry

> <i_lp_mmshare_version>
47013

> <i_f3d_flags>
0

> <s_epik_input>
W2NIXTFbY0hdW2NIXVtjSF1bY0hdYzFbTkhdQyg9TyljMmMoLWMzW2NIXVtjSF1bY0hdW2NIXVtjSF0zKWMoLWM0W2NIXVtjSF1jKEYpW2NIXVtjSF00KW4oYzJbQ0hdKFtDSDNdKVtDSDNdKVtDSDJdW0NIMl1bQ0BASF0oW09IXSlbQ0gyXVtDQEBIXShbT0hdKVtDSDJdQyg9TylPW0NIM10=

> <s_epik_cmdline>
J2VwaWtfcHl0aG9uJywgJy1waCcsICc3LjQnLCAnLXRuJywgJzgnLCAnLW1hJywgJzIwMCcsICctaW1hZScsICc8aW5maWxlLm1hZT4nLCAnLW9tYWUnLCAnPG91dGZpbGUubWFlPic=

> <r_epik_Ionization_Penalty>
  0.0000

> <r_epik_Ionization_Penalty_Charging>
  0.0000

> <r_epik_Ionization_Penalty_Neutral>
  0.0000

> <r_epik_State_Penalty>
  0.0000

> <r_epik_Charging_Adjusted_Penalty>
0

> <i_epik_Tot_Q>
0

> <i_epik_Tot_abs_Q>
0

> <s_lp_Force_Field>
OPLS3e

> <r_lp_Energy>
46.086406

> <b_lp_Chiralities_Consistent>
1

> <s_lp_Variant>
10099576-1

> <s_m_job_name>
ligprep_11

> <s_m_Source_Path>
/home/andre/Documents/projects/Esterase/data/FINAL_STUFF/Compounds/MAE_external

> <s_m_Source_File>
55.mae

> <i_m_Source_File_Index>
1

> <r_lp_tautomer_probability>
1

> <s_epik_Chemistry_Notes>
This compound has an ester and may undergo hydrolysis at high or low pH.

$$$$
