57
                    3D
 Schrodinger Suite 2021-1.
 89 93  0  0  1  0            999 V2000
    1.5370    6.7894   -1.4799 C   0  0  0  0  0  0
    0.4453    6.1119   -2.0299 C   0  0  0  0  0  0
   -0.2628    6.6855   -3.0989 C   0  0  0  0  0  0
    0.1164    7.9301   -3.5948 C   0  0  0  0  0  0
    1.2003    8.5993   -3.0321 C   0  0  0  0  0  0
    1.9134    8.0335   -1.9783 C   0  0  0  0  0  0
    0.1501    4.8580   -1.4667 N   0  0  0  0  0  0
   -0.9747    4.1199   -1.5761 C   0  0  0  0  0  0
   -0.8868    2.8786   -0.8611 C   0  0  0  0  0  0
   -1.9967    4.4163   -2.1938 O   0  0  0  0  0  0
   -1.2467    2.6829    0.4824 C   0  0  0  0  0  0
   -0.9933    1.3445    0.7746 C   0  0  0  0  0  0
   -0.4007    0.7520   -0.3357 N   0  0  0  0  0  0
   -0.3348    1.6942   -1.3621 C   0  0  0  0  0  0
   -1.8313    3.6894    1.4222 C   0  0  0  0  0  0
    0.1394   -0.6190   -0.3799 C   0  0  0  0  0  0
    1.6063   -0.7226    0.1226 C   0  0  0  0  0  0
    1.8345   -0.6244    1.6476 C   0  0  2  0  0  0
    3.3297   -0.7366    2.0329 C   0  0  0  0  0  0
    1.0866   -1.6332    2.3011 O   0  0  0  0  0  0
    3.6450   -0.4932    3.5351 C   0  0  2  0  0  0
    5.1465   -0.2863    3.8483 C   0  0  0  0  0  0
    3.2089   -1.5934    4.3074 O   0  0  0  0  0  0
    5.7289    0.9909    3.2377 C   0  0  0  0  0  0
    5.1156    2.1108    3.6914 O   0  0  0  0  0  0
    6.6351    0.9454    2.4044 O   0  0  0  0  0  0
    5.3604    3.3870    3.1005 C   0  0  0  0  0  0
   -1.1283    4.8589    1.7271 C   0  0  0  0  0  0
   -1.6735    5.7905    2.6061 C   0  0  0  0  0  0
   -2.9187    5.5492    3.1823 C   0  0  0  0  0  0
   -3.6237    4.3843    2.8873 C   0  0  0  0  0  0
   -3.0794    3.4537    2.0064 C   0  0  0  0  0  0
   -1.2854    0.6427    2.0638 C   0  0  0  0  0  0
   -2.1312   -0.4702    2.0916 C   0  0  0  0  0  0
   -2.4097   -1.1047    3.2992 C   0  0  0  0  0  0
   -1.8534   -0.6183    4.4802 C   0  0  0  0  0  0
   -1.0267    0.5027    4.4643 C   0  0  0  0  0  0
   -0.7493    1.1378    3.2573 C   0  0  0  0  0  0
    0.1892    1.4302   -2.7867 C   0  0  0  0  0  0
   -0.8048    0.6007   -3.6218 C   0  0  0  0  0  0
    1.6321    0.9009   -2.8803 C   0  0  0  0  0  0
   -2.1224   -1.2361    5.6524 F   0  0  0  0  0  0
    4.6539    3.5225    1.7538 C   0  0  0  0  0  0
    3.3316    3.0912    1.6033 C   0  0  0  0  0  0
    2.7041    3.1952    0.3667 C   0  0  0  0  0  0
    3.3940    3.7383   -0.7146 C   0  0  0  0  0  0
    4.7061    4.1830   -0.5685 C   0  0  0  0  0  0
    5.3372    4.0757    0.6682 C   0  0  0  0  0  0
    2.0965    6.3607   -0.6606 H   0  0  0  0  0  0
   -1.0947    6.1854   -3.5690 H   0  0  0  0  0  0
   -0.4264    8.3725   -4.4171 H   0  0  0  0  0  0
    1.4927    9.5642   -3.4192 H   0  0  0  0  0  0
    2.7548    8.5576   -1.5492 H   0  0  0  0  0  0
    0.8768    4.4819   -0.8757 H   0  0  0  0  0  0
   -0.5052   -1.2780    0.1967 H   0  0  0  0  0  0
    0.0557   -1.0055   -1.3918 H   0  0  0  0  0  0
    2.0107   -1.6742   -0.2258 H   0  0  0  0  0  0
    2.2123    0.0426   -0.3607 H   0  0  0  0  0  0
    1.4831    0.3478    1.9871 H   0  0  0  0  0  0
    3.7296   -1.7038    1.7227 H   0  0  0  0  0  0
    3.8690    0.0025    1.4395 H   0  0  0  0  0  0
    0.1586   -1.5124    2.0859 H   0  0  0  0  0  0
    3.0846    0.3770    3.8818 H   0  0  0  0  0  0
    5.3063   -0.2455    4.9264 H   0  0  0  0  0  0
    5.7200   -1.1398    3.4843 H   0  0  0  0  0  0
    2.2963   -1.7824    4.0742 H   0  0  0  0  0  0
    4.9821    4.1612    3.7682 H   0  0  0  0  0  0
    6.4338    3.5547    2.9930 H   0  0  0  0  0  0
   -0.1582    5.0459    1.2906 H   0  0  0  0  0  0
   -1.1327    6.6953    2.8414 H   0  0  0  0  0  0
   -3.3416    6.2718    3.8646 H   0  0  0  0  0  0
   -4.5880    4.2040    3.3390 H   0  0  0  0  0  0
   -3.6283    2.5513    1.7786 H   0  0  0  0  0  0
   -2.5766   -0.8426    1.1805 H   0  0  0  0  0  0
   -3.0581   -1.9681    3.3202 H   0  0  0  0  0  0
   -0.6034    0.8788    5.3839 H   0  0  0  0  0  0
   -0.1090    2.0083    3.2492 H   0  0  0  0  0  0
    0.2333    2.3904   -3.3018 H   0  0  0  0  0  0
   -1.7665    1.1097   -3.6993 H   0  0  0  0  0  0
   -0.9927   -0.3847   -3.1996 H   0  0  0  0  0  0
   -0.4358    0.4513   -4.6371 H   0  0  0  0  0  0
    2.3095    1.4750   -2.2488 H   0  0  0  0  0  0
    2.0026    0.9817   -3.9029 H   0  0  0  0  0  0
    1.7169   -0.1499   -2.6116 H   0  0  0  0  0  0
    2.7931    2.6655    2.4379 H   0  0  0  0  0  0
    1.6889    2.8523    0.2500 H   0  0  0  0  0  0
    2.9068    3.8186   -1.6752 H   0  0  0  0  0  0
    5.2328    4.6047   -1.4120 H   0  0  0  0  0  0
    6.3574    4.4143    0.7779 H   0  0  0  0  0  0
  1  2  2  0  0  0
  1  6  1  0  0  0
  1 49  1  0  0  0
  2  3  1  0  0  0
  2  7  1  0  0  0
  3  4  2  0  0  0
  3 50  1  0  0  0
  4  5  1  0  0  0
  4 51  1  0  0  0
  5  6  2  0  0  0
  5 52  1  0  0  0
  6 53  1  0  0  0
  7  8  1  0  0  0
  7 54  1  0  0  0
  8  9  1  0  0  0
  8 10  2  0  0  0
  9 14  2  0  0  0
  9 11  1  0  0  0
 11 12  2  0  0  0
 11 15  1  0  0  0
 12 13  1  0  0  0
 12 33  1  0  0  0
 13 14  1  0  0  0
 13 16  1  0  0  0
 14 39  1  0  0  0
 15 32  2  0  0  0
 15 28  1  0  0  0
 16 17  1  0  0  0
 16 55  1  0  0  0
 16 56  1  0  0  0
 17 18  1  0  0  0
 17 57  1  0  0  0
 17 58  1  0  0  0
 18 19  1  0  0  0
 18 20  1  0  0  0
 18 59  1  0  0  0
 19 21  1  0  0  0
 19 60  1  0  0  0
 19 61  1  0  0  0
 20 62  1  0  0  0
 21 22  1  0  0  0
 21 23  1  0  0  0
 21 63  1  0  0  0
 22 24  1  0  0  0
 22 64  1  0  0  0
 22 65  1  0  0  0
 23 66  1  0  0  0
 24 25  1  0  0  0
 24 26  2  0  0  0
 25 27  1  0  0  0
 27 43  1  0  0  0
 27 67  1  0  0  0
 27 68  1  0  0  0
 28 29  2  0  0  0
 28 69  1  0  0  0
 29 30  1  0  0  0
 29 70  1  0  0  0
 30 31  2  0  0  0
 30 71  1  0  0  0
 31 32  1  0  0  0
 31 72  1  0  0  0
 32 73  1  0  0  0
 33 38  2  0  0  0
 33 34  1  0  0  0
 34 35  2  0  0  0
 34 74  1  0  0  0
 35 36  1  0  0  0
 35 75  1  0  0  0
 36 37  2  0  0  0
 36 42  1  0  0  0
 37 38  1  0  0  0
 37 76  1  0  0  0
 38 77  1  0  0  0
 39 40  1  0  0  0
 39 41  1  0  0  0
 39 78  1  0  0  0
 40 79  1  0  0  0
 40 80  1  0  0  0
 40 81  1  0  0  0
 41 82  1  0  0  0
 41 83  1  0  0  0
 41 84  1  0  0  0
 43 48  2  0  0  0
 43 44  1  0  0  0
 44 45  2  0  0  0
 44 85  1  0  0  0
 45 46  1  0  0  0
 45 86  1  0  0  0
 46 47  2  0  0  0
 46 87  1  0  0  0
 47 48  1  0  0  0
 47 88  1  0  0  0
 48 89  1  0  0  0
M  END
> <s_m_entry_id>
57

> <s_m_entry_name>
entry

> <i_lp_mmshare_version>
47013

> <i_f3d_flags>
0

> <s_epik_input>
W2NIXTFbY0hdW2NIXVtjSF1bY0hdYzFbTkhdQyg9TyljMmMoLWMzW2NIXVtjSF1bY0hdW2NIXVtjSF0zKWMoLWM0W2NIXVtjSF1jKEYpW2NIXVtjSF00KW4oYzJbQ0hdKFtDSDNdKVtDSDNdKVtDSDJdW0NIMl1bQ0BASF0oW09IXSlbQ0gyXVtDQEBIXShbT0hdKVtDSDJdQyg9TylPW0NIMl1jNVtjSF1bY0hdW2NIXVtjSF1bY0hdNQ==

> <s_epik_cmdline>
J2VwaWtfcHl0aG9uJywgJy1waCcsICc3LjQnLCAnLXRuJywgJzgnLCAnLW1hJywgJzIwMCcsICctaW1hZScsICc8aW5maWxlLm1hZT4nLCAnLW9tYWUnLCAnPG91dGZpbGUubWFlPic=

> <r_epik_Ionization_Penalty>
  0.0000

> <r_epik_Ionization_Penalty_Charging>
  0.0000

> <r_epik_Ionization_Penalty_Neutral>
  0.0000

> <r_epik_State_Penalty>
  0.0000

> <r_epik_Charging_Adjusted_Penalty>
0

> <i_epik_Tot_Q>
0

> <i_epik_Tot_abs_Q>
0

> <s_lp_Force_Field>
OPLS3e

> <r_lp_Energy>
50.028161

> <b_lp_Chiralities_Consistent>
1

> <s_lp_Variant>
70652518-1

> <s_m_job_name>
ligprep_11

> <s_m_Source_Path>
/home/andre/Documents/projects/Esterase/data/FINAL_STUFF/Compounds/MAE_external

> <s_m_Source_File>
57.mae

> <i_m_Source_File_Index>
1

> <r_lp_tautomer_probability>
1

> <s_epik_Chemistry_Notes>
This compound has an ester and may undergo hydrolysis at high or low pH.

$$$$
