60
                    3D
 Schrodinger Suite 2021-1.
 58 60  0  0  1  0            999 V2000
   -4.3511    6.6185    0.6313 C   0  0  0  0  0  0
   -3.8605    7.7027   -0.0963 C   0  0  0  0  0  0
   -2.6804    7.5779   -0.8300 C   0  0  0  0  0  0
   -1.9942    6.3665   -0.8360 C   0  0  0  0  0  0
   -2.4756    5.2683   -0.1118 C   0  0  0  0  0  0
   -3.6615    5.4094    0.6203 C   0  0  0  0  0  0
   -1.7371    3.9734   -0.1140 C   0  0  0  0  0  0
   -2.4252    2.7598   -0.2246 C   0  0  0  0  0  0
   -1.7371    1.5499   -0.2121 C   0  0  0  0  0  0
   -0.3489    1.5244   -0.0875 C   0  0  0  0  0  0
    0.3476    2.7379    0.0153 C   0  0  0  0  0  0
   -0.3427    3.9467    0.0015 C   0  0  0  0  0  0
   -4.7391    9.2635   -0.0765 S   0  0  0  0  0  0
   -3.9608   10.1730    1.3803 C   0  0  0  0  0  0
   -4.3964    9.9799   -1.3103 O   0  0  0  0  0  0
   -6.1416    8.9786    0.2478 O   0  0  0  0  0  0
    0.2416    0.2734   -0.0614 O   0  0  0  0  0  0
    1.6312    0.1439    0.0882 C   0  0  1  0  0  0
    2.0872    0.6153    1.3372 O   0  0  0  0  0  0
    1.5454   -0.0665    2.4769 C   0  0  1  0  0  0
    1.8772   -1.5795    2.4434 C   0  0  2  0  0  0
    1.4508   -2.1846    1.0895 C   0  0  1  0  0  0
    1.9922   -1.3413   -0.0907 C   0  0  2  0  0  0
    3.3892   -1.4953   -0.2753 O   0  0  0  0  0  0
    1.8139   -3.5508    0.9734 O   0  0  0  0  0  0
    1.2763   -2.2637    3.5303 O   0  0  0  0  0  0
    2.0341    0.6618    3.7439 C   0  0  0  0  0  0
    3.4398    0.5142    3.9136 O   0  0  0  0  0  0
    4.0756    1.1199    4.9358 C   0  0  0  0  0  0
    3.5493    1.8391    5.7891 O   0  0  0  0  0  0
    5.5781    0.8122    4.9290 C   0  0  0  0  0  0
    6.3740    1.4927    6.0577 C   0  0  0  0  0  0
   -5.2602    6.7082    1.2078 H   0  0  0  0  0  0
   -2.2915    8.4135   -1.3934 H   0  0  0  0  0  0
   -1.0843    6.2843   -1.4129 H   0  0  0  0  0  0
   -4.0511    4.5809    1.1942 H   0  0  0  0  0  0
   -3.5011    2.7487   -0.3222 H   0  0  0  0  0  0
   -2.2875    0.6238   -0.2941 H   0  0  0  0  0  0
    1.4217    2.7655    0.1164 H   0  0  0  0  0  0
    0.2154    4.8671    0.0944 H   0  0  0  0  0  0
   -4.4264   11.1539    1.4718 H   0  0  0  0  0  0
   -2.8920   10.2833    1.1990 H   0  0  0  0  0  0
   -4.1280    9.5955    2.2890 H   0  0  0  0  0  0
    2.1308    0.7669   -0.6569 H   0  0  0  0  0  0
    0.4604    0.0550    2.4524 H   0  0  0  0  0  0
    2.9544   -1.7097    2.5609 H   0  0  0  0  0  0
    0.3604   -2.1744    1.0358 H   0  0  0  0  0  0
    1.5361   -1.6820   -1.0219 H   0  0  0  0  0  0
    3.6124   -2.4164   -0.1196 H   0  0  0  0  0  0
    1.5234   -4.0104    1.7652 H   0  0  0  0  0  0
    0.3223   -2.2077    3.4377 H   0  0  0  0  0  0
    1.7808    1.7210    3.6709 H   0  0  0  0  0  0
    1.5106    0.2755    4.6200 H   0  0  0  0  0  0
    5.7046   -0.2685    5.0002 H   0  0  0  0  0  0
    5.9870    1.1153    3.9648 H   0  0  0  0  0  0
    7.4290    1.2247    5.9989 H   0  0  0  0  0  0
    6.0136    1.1897    7.0417 H   0  0  0  0  0  0
    6.3082    2.5798    5.9949 H   0  0  0  0  0  0
  1  2  2  0  0  0
  1  6  1  0  0  0
  1 33  1  0  0  0
  2  3  1  0  0  0
  2 13  1  0  0  0
  3  4  2  0  0  0
  3 34  1  0  0  0
  4  5  1  0  0  0
  4 35  1  0  0  0
  5  6  2  0  0  0
  5  7  1  0  0  0
  6 36  1  0  0  0
  7 12  2  0  0  0
  7  8  1  0  0  0
  8  9  2  0  0  0
  8 37  1  0  0  0
  9 10  1  0  0  0
  9 38  1  0  0  0
 10 11  2  0  0  0
 10 17  1  0  0  0
 11 12  1  0  0  0
 11 39  1  0  0  0
 12 40  1  0  0  0
 13 14  1  0  0  0
 13 15  2  0  0  0
 13 16  2  0  0  0
 14 41  1  0  0  0
 14 42  1  0  0  0
 14 43  1  0  0  0
 17 18  1  0  0  0
 18 23  1  0  0  0
 18 19  1  0  0  0
 18 44  1  0  0  0
 19 20  1  0  0  0
 20 21  1  0  0  0
 20 27  1  0  0  0
 20 45  1  0  0  0
 21 22  1  0  0  0
 21 26  1  0  0  0
 21 46  1  0  0  0
 22 23  1  0  0  0
 22 25  1  0  0  0
 22 47  1  0  0  0
 23 24  1  0  0  0
 23 48  1  0  0  0
 24 49  1  0  0  0
 25 50  1  0  0  0
 26 51  1  0  0  0
 27 28  1  0  0  0
 27 52  1  0  0  0
 27 53  1  0  0  0
 28 29  1  0  0  0
 29 30  2  0  0  0
 29 31  1  0  0  0
 31 32  1  0  0  0
 31 54  1  0  0  0
 31 55  1  0  0  0
 32 56  1  0  0  0
 32 57  1  0  0  0
 32 58  1  0  0  0
M  END
> <s_m_entry_id>
60

> <s_m_entry_name>
entry

> <i_lp_mmshare_version>
47013

> <i_f3d_flags>
0

> <s_epik_input>
W0NIM11TKD1PKSg9TyljMVtjSF1bY0hdYyhbY0hdW2NIXTEpLWMyW2NIXVtjSF1jKFtjSF1bY0hdMilPW0NASF0zT1tDQEBIXShbQ0BASF0oW09IXSlbQ0BIXShbT0hdKVtDQEBIXTNbT0hdKVtDSDJdT0MoPU8pW0NIMl1bQ0gzXQ==

> <s_epik_cmdline>
J2VwaWtfcHl0aG9uJywgJy1waCcsICc3LjQnLCAnLXRuJywgJzgnLCAnLW1hJywgJzIwMCcsICctaW1hZScsICc8aW5maWxlLm1hZT4nLCAnLW9tYWUnLCAnPG91dGZpbGUubWFlPic=

> <r_epik_Ionization_Penalty>
  0.0000

> <r_epik_Ionization_Penalty_Charging>
  0.0000

> <r_epik_Ionization_Penalty_Neutral>
  0.0000

> <r_epik_State_Penalty>
  0.0000

> <r_epik_Charging_Adjusted_Penalty>
0

> <i_epik_Tot_Q>
0

> <i_epik_Tot_abs_Q>
0

> <s_lp_Force_Field>
OPLS3e

> <r_lp_Energy>
29.41894

> <b_lp_Chiralities_Consistent>
1

> <s_lp_Variant>
132527120-1

> <s_m_job_name>
ligprep_16

> <s_m_Source_Path>
/home/andre/Documents/projects/Esterase/data/FINAL_STUFF/Compounds/MAE_external

> <s_m_Source_File>
60.mae

> <i_m_Source_File_Index>
1

> <r_lp_tautomer_probability>
1

> <s_epik_Chemistry_Notes>
This compound has an ester and may undergo hydrolysis at high or low pH. This compound contains an acetal/aminal-like group ( X-CH(R)-Y where X, Y are N, S, or O) that may be acid/base labile, releasing an aldehyde.

$$$$
