63
                    3D
 Schrodinger Suite 2021-1.
 61 63  0  0  1  0            999 V2000
    0.4422    0.8949   -4.7812 C   0  0  0  0  0  0
   -0.2207   -0.2123   -3.9559 C   0  0  0  0  0  0
    0.0800   -0.0193   -2.5805 O   0  0  0  0  0  0
   -0.4509   -0.8330   -1.6339 C   0  0  0  0  0  0
   -1.2089   -1.7797   -1.8564 O   0  0  0  0  0  0
   -0.0062   -0.4724   -0.2294 C   0  0  2  0  0  0
   -0.2605    1.0202    0.1180 C   0  0  0  0  0  0
   -1.7408    1.3799    0.3676 C   0  0  0  0  0  0
   -2.3267    0.6941    1.5954 C   0  0  0  0  0  0
   -3.2132   -0.3758    1.4431 C   0  0  0  0  0  0
   -3.7321   -1.0130    2.5671 C   0  0  0  0  0  0
   -3.3628   -0.5790    3.8387 C   0  0  0  0  0  0
   -2.4793    0.4868    3.9972 C   0  0  0  0  0  0
   -1.9612    1.1255    2.8739 C   0  0  0  0  0  0
    1.4207   -0.8318   -0.0805 N   0  0  2  0  0  0
    1.7127   -1.4487    1.2349 C   0  0  1  0  0  0
    1.2664   -2.9211    1.3534 C   0  0  0  0  0  0
    3.2479   -1.3495    1.4588 C   0  0  0  0  0  0
    3.9953   -1.7022    0.5393 O   0  0  0  0  0  0
    3.7252   -0.8960    2.6521 N   0  0  0  0  0  0
    5.1756   -0.7965    2.9074 C   0  0  1  0  0  0
    5.9234    0.3751    2.2362 C   0  0  0  0  0  0
    6.7503    1.0269    3.3456 C   0  0  0  0  0  0
    5.8885    0.8438    4.5935 C   0  0  0  0  0  0
    5.2838   -0.5597    4.4232 C   0  0  1  0  0  0
    3.8858   -0.7868    4.9861 C   0  0  0  0  0  0
    2.9227   -0.4836    3.8288 C   0  0  1  0  0  0
    2.3918    0.9719    3.7252 C   0  0  0  0  0  0
    1.8752    1.4475    4.7601 O   0  0  0  0  0  0
    2.4802    1.5840    2.6362 O   0  5  0  0  0  0
    0.2259    0.7682   -5.8420 H   0  0  0  0  0  0
    1.5257    0.8843   -4.6589 H   0  0  0  0  0  0
    0.0797    1.8793   -4.4834 H   0  0  0  0  0  0
   -1.3010   -0.1927   -4.1100 H   0  0  0  0  0  0
    0.1407   -1.1891   -4.2813 H   0  0  0  0  0  0
   -0.6141   -1.0691    0.4516 H   0  0  0  0  0  0
    0.2792    1.2421    1.0400 H   0  0  0  0  0  0
    0.1754    1.6959   -0.6195 H   0  0  0  0  0  0
   -1.8384    2.4595    0.4913 H   0  0  0  0  0  0
   -2.3398    1.1453   -0.5138 H   0  0  0  0  0  0
   -3.4933   -0.7192    0.4577 H   0  0  0  0  0  0
   -4.4154   -1.8416    2.4535 H   0  0  0  0  0  0
   -3.7637   -1.0752    4.7100 H   0  0  0  0  0  0
   -2.1941    0.8147    4.9861 H   0  0  0  0  0  0
   -1.2699    1.9470    2.9981 H   0  0  0  0  0  0
    1.9558    0.0227   -0.1481 H   0  0  0  0  0  0
    1.1909   -0.8859    2.0063 H   0  0  0  0  0  0
    1.5334   -3.3420    2.3240 H   0  0  0  0  0  0
    1.7232   -3.5460    0.5842 H   0  0  0  0  0  0
    0.1854   -3.0184    1.2521 H   0  0  0  0  0  0
    5.6691   -1.7376    2.6578 H   0  0  0  0  0  0
    6.5276    0.0492    1.3893 H   0  0  0  0  0  0
    5.2111    1.1108    1.8578 H   0  0  0  0  0  0
    7.7015    0.5056    3.4647 H   0  0  0  0  0  0
    6.9695    2.0756    3.1411 H   0  0  0  0  0  0
    6.4351    0.9644    5.5293 H   0  0  0  0  0  0
    5.1064    1.6043    4.5634 H   0  0  0  0  0  0
    6.0086   -1.2777    4.8114 H   0  0  0  0  0  0
    3.7834   -1.8383    5.2593 H   0  0  0  0  0  0
    3.6932   -0.2152    5.8954 H   0  0  0  0  0  0
    2.0518   -1.1297    3.9406 H   0  0  0  0  0  0
  1  2  1  0  0  0
  1 31  1  0  0  0
  1 32  1  0  0  0
  1 33  1  0  0  0
  2  3  1  0  0  0
  2 34  1  0  0  0
  2 35  1  0  0  0
  3  4  1  0  0  0
  4  5  2  0  0  0
  4  6  1  0  0  0
  6  7  1  0  0  0
  6 15  1  0  0  0
  6 36  1  0  0  0
  7  8  1  0  0  0
  7 37  1  0  0  0
  7 38  1  0  0  0
  8  9  1  0  0  0
  8 39  1  0  0  0
  8 40  1  0  0  0
  9 14  1  0  0  0
  9 10  2  0  0  0
 10 11  1  0  0  0
 10 41  1  0  0  0
 11 12  2  0  0  0
 11 42  1  0  0  0
 12 13  1  0  0  0
 12 43  1  0  0  0
 13 14  2  0  0  0
 13 44  1  0  0  0
 14 45  1  0  0  0
 15 16  1  0  0  0
 15 46  1  0  0  0
 16 17  1  0  0  0
 16 18  1  0  0  0
 16 47  1  0  0  0
 17 48  1  0  0  0
 17 49  1  0  0  0
 17 50  1  0  0  0
 18 19  2  0  0  0
 18 20  1  0  0  0
 20 27  1  0  0  0
 20 21  1  0  0  0
 21 25  1  0  0  0
 21 22  1  0  0  0
 21 51  1  0  0  0
 22 23  1  0  0  0
 22 52  1  0  0  0
 22 53  1  0  0  0
 23 24  1  0  0  0
 23 54  1  0  0  0
 23 55  1  0  0  0
 24 25  1  0  0  0
 24 56  1  0  0  0
 24 57  1  0  0  0
 25 26  1  0  0  0
 25 58  1  0  0  0
 26 27  1  0  0  0
 26 59  1  0  0  0
 26 60  1  0  0  0
 27 28  1  0  0  0
 27 61  1  0  0  0
 28 29  2  0  0  0
 28 30  1  0  0  0
M  CHG  1  30  -1
M  END
> <s_m_entry_id>
63

> <s_m_entry_name>
entry

> <i_lp_mmshare_version>
47013

> <i_f3d_flags>
0

> <s_epik_input>
W2NIXTFbY0hdW2NIXVtjSF1bY0hdYzFbQ0gyXVtDSDJdW0NAQEhdKEMoPU8pT1tDSDJdW0NIM10pW05IXVtDQEBIXShbQ0gzXSlDKD1PKU4yW0NASF0oQyg9TylbT0hdKVtDSDJdW0NAQEhdKFtDQEBIXTIzKVtDSDJdW0NIMl1bQ0gyXTM=

> <s_epik_cmdline>
J2VwaWtfcHl0aG9uJywgJy1waCcsICc3LjQnLCAnLXRuJywgJzgnLCAnLW1hJywgJzIwMCcsICctaW1hZScsICc8aW5maWxlLm1hZT4nLCAnLW9tYWUnLCAnPG91dGZpbGUubWFlPic=

> <r_epik_Ionization_Penalty>
  0.0956

> <r_epik_Ionization_Penalty_Charging>
  0.0002

> <r_epik_Ionization_Penalty_Neutral>
  0.0954

> <r_epik_State_Penalty>
  0.0856

> <r_epik_Charging_Adjusted_Penalty>
0.0857626471710614

> <i_epik_Tot_Q>
-1

> <i_epik_Tot_abs_Q>
1

> <s_lp_Force_Field>
OPLS3e

> <r_lp_Energy>
39.073671

> <b_lp_Chiralities_Consistent>
1

> <s_lp_Variant>
5362129-1

> <s_m_job_name>
ligprep_1

> <s_m_Source_Path>
/home/andre/Documents/projects/Esterase/data/FINAL_STUFF/Compounds/MAE_external

> <s_m_Source_File>
63.mae

> <i_m_Source_File_Index>
1

> <s_epik_Chemistry_Notes>
This compound has an ester and may undergo hydrolysis at high or low pH.

$$$$
