64
                    3D
 Schrodinger Suite 2021-1.
 66 71  0  0  1  0            999 V2000
   -2.0492   -6.4827   -0.8160 C   0  0  0  0  0  0
   -2.4071   -5.0092   -0.6014 C   0  0  0  0  0  0
   -1.2025   -4.2667   -0.4217 O   0  0  0  0  0  0
   -1.3225   -2.9184   -0.1660 C   0  0  0  0  0  0
   -2.4475   -2.2477   -0.2030 N   0  0  0  0  0  0
   -2.0891   -0.9750    0.1394 C   0  0  0  0  0  0
   -2.9213    0.1456    0.2449 C   0  0  0  0  0  0
   -2.3450    1.3590    0.6046 C   0  0  0  0  0  0
   -0.9806    1.4613    0.8623 C   0  0  0  0  0  0
   -0.1072    0.3642    0.7845 C   0  0  0  0  0  0
   -0.6914   -0.8651    0.4031 C   0  0  0  0  0  0
   -0.2214   -2.1556    0.1673 N   0  0  0  0  0  0
    1.1392   -2.6791    0.3081 C   0  0  0  0  0  0
    1.5546   -3.1155    1.7149 C   0  0  0  0  0  0
    0.6310   -3.2503    2.7585 C   0  0  0  0  0  0
    1.0524   -3.6771    4.0141 C   0  0  0  0  0  0
    2.3967   -3.9857    4.2455 C   0  0  0  0  0  0
    3.3179   -3.8357    3.2047 C   0  0  0  0  0  0
    2.8995   -3.4089    1.9478 C   0  0  0  0  0  0
    2.8476   -4.4582    5.5871 C   0  0  0  0  0  0
    3.7764   -3.6616    6.2718 C   0  0  0  0  0  0
    4.2228   -4.0006    7.5456 C   0  0  0  0  0  0
    3.7464   -5.1513    8.1616 C   0  0  0  0  0  0
    2.8328   -5.9657    7.4988 C   0  0  0  0  0  0
    2.3760   -5.6454    6.2084 C   0  0  0  0  0  0
    1.4461   -6.5960    5.5534 C   0  0  0  0  0  0
    1.3809   -6.8848    4.3250 N   0  0  0  0  0  0
    0.3543   -7.8187    4.1983 O   0  0  0  0  0  0
   -0.1871   -8.0847    5.3788 C   0  0  0  0  0  0
   -1.1113   -8.8733    5.5644 O   0  0  0  0  0  0
    0.5277   -7.2906    6.2521 N   0  0  0  0  0  0
    1.3314    0.5943    1.0759 C   0  0  0  0  0  0
    1.9735   -0.0561    1.9019 O   0  0  0  0  0  0
    1.8529    1.5553    0.2796 O   0  0  0  0  0  0
    3.2272    1.9062    0.3637 C   0  0  0  0  0  0
    3.5453    3.0196   -0.6099 C   0  0  0  0  0  0
    4.3165    3.1333   -1.6872 C   0  0  0  0  0  0
    4.2159    4.3807   -2.1604 O   0  0  0  0  0  0
    3.3644    5.0435   -1.3464 C   0  0  0  0  0  0
    3.0256    6.2193   -1.4651 O   0  0  0  0  0  0
    2.9489    4.1954   -0.3798 O   0  0  0  0  0  0
    5.2286    2.2016   -2.4540 C   0  0  0  0  0  0
   -2.9467   -7.0862   -0.9540 H   0  0  0  0  0  0
   -1.5062   -6.8834    0.0406 H   0  0  0  0  0  0
   -1.4225   -6.6103   -1.6992 H   0  0  0  0  0  0
   -2.9613   -4.6343   -1.4639 H   0  0  0  0  0  0
   -3.0506   -4.9107    0.2751 H   0  0  0  0  0  0
   -3.9811    0.0754    0.0483 H   0  0  0  0  0  0
   -2.9667    2.2386    0.6864 H   0  0  0  0  0  0
   -0.5975    2.4343    1.1389 H   0  0  0  0  0  0
    1.2483   -3.5348   -0.3600 H   0  0  0  0  0  0
    1.8302   -1.9254   -0.0696 H   0  0  0  0  0  0
   -0.4162   -3.0337    2.6095 H   0  0  0  0  0  0
    0.3271   -3.7793    4.8084 H   0  0  0  0  0  0
    4.3618   -4.0635    3.3657 H   0  0  0  0  0  0
    3.6243   -3.3114    1.1525 H   0  0  0  0  0  0
    4.1496   -2.7553    5.8165 H   0  0  0  0  0  0
    4.9345   -3.3685    8.0562 H   0  0  0  0  0  0
    4.0906   -5.4175    9.1503 H   0  0  0  0  0  0
    2.4992   -6.8633    8.0009 H   0  0  0  0  0  0
    3.4753    2.2329    1.3747 H   0  0  0  0  0  0
    3.8484    1.0382    0.1381 H   0  0  0  0  0  0
    5.2312    1.2076   -2.0065 H   0  0  0  0  0  0
    6.2492    2.5846   -2.4511 H   0  0  0  0  0  0
    4.8946    2.1129   -3.4880 H   0  0  0  0  0  0
    0.3615   -7.2552    7.2470 H   0  0  0  0  0  0
  1  2  1  0  0  0
  1 43  1  0  0  0
  1 44  1  0  0  0
  1 45  1  0  0  0
  2  3  1  0  0  0
  2 46  1  0  0  0
  2 47  1  0  0  0
  3  4  1  0  0  0
  4 12  1  0  0  0
  4  5  2  0  0  0
  5  6  1  0  0  0
  6 11  2  0  0  0
  6  7  1  0  0  0
  7  8  2  0  0  0
  7 48  1  0  0  0
  8  9  1  0  0  0
  8 49  1  0  0  0
  9 10  2  0  0  0
  9 50  1  0  0  0
 10 11  1  0  0  0
 10 32  1  0  0  0
 11 12  1  0  0  0
 12 13  1  0  0  0
 13 14  1  0  0  0
 13 51  1  0  0  0
 13 52  1  0  0  0
 14 19  1  0  0  0
 14 15  2  0  0  0
 15 16  1  0  0  0
 15 53  1  0  0  0
 16 17  2  0  0  0
 16 54  1  0  0  0
 17 18  1  0  0  0
 17 20  1  0  0  0
 18 19  2  0  0  0
 18 55  1  0  0  0
 19 56  1  0  0  0
 20 25  1  0  0  0
 20 21  2  0  0  0
 21 22  1  0  0  0
 21 57  1  0  0  0
 22 23  2  0  0  0
 22 58  1  0  0  0
 23 24  1  0  0  0
 23 59  1  0  0  0
 24 25  2  0  0  0
 24 60  1  0  0  0
 25 26  1  0  0  0
 26 31  1  0  0  0
 26 27  2  0  0  0
 27 28  1  0  0  0
 28 29  1  0  0  0
 29 30  2  0  0  0
 29 31  1  0  0  0
 31 66  1  0  0  0
 32 33  2  0  0  0
 32 34  1  0  0  0
 34 35  1  0  0  0
 35 36  1  0  0  0
 35 61  1  0  0  0
 35 62  1  0  0  0
 36 41  1  0  0  0
 36 37  2  0  0  0
 37 38  1  0  0  0
 37 42  1  0  0  0
 38 39  1  0  0  0
 39 40  2  0  0  0
 39 41  1  0  0  0
 42 63  1  0  0  0
 42 64  1  0  0  0
 42 65  1  0  0  0
M  END
> <s_m_entry_id>
64

> <s_m_entry_name>
entry

> <i_lp_mmshare_version>
47013

> <i_f3d_flags>
0

> <s_epik_input>
Tz1jKG8xKW9jKFtDSDNdKWMxW0NIMl1PQyg9TyljKFtjSF1bY0hdW2NIXTIpYyhjMjMpbihjKG4zKU9bQ0gyXVtDSDNdKVtDSDJdYzRbY0hdW2NIXWMoW2NIXVtjSF00KS1jNVtjSF1bY0hdW2NIXVtjSF1jNS1jNm5vYyg9TylbbkhdNg==

> <s_epik_cmdline>
J2VwaWtfcHl0aG9uJywgJy1waCcsICc3LjQnLCAnLXRuJywgJzgnLCAnLW1hJywgJzIwMCcsICctaW1hZScsICc8aW5maWxlLm1hZT4nLCAnLW9tYWUnLCAnPG91dGZpbGUubWFlPic=

> <r_epik_Ionization_Penalty>
  5.1832

> <r_epik_Ionization_Penalty_Charging>
  5.1013

> <r_epik_Ionization_Penalty_Neutral>
  0.0819

> <r_epik_State_Penalty>
  0.0000

> <r_epik_Charging_Adjusted_Penalty>
5.10133519294778

> <i_epik_Tot_Q>
0

> <i_epik_Tot_abs_Q>
0

> <s_lp_Force_Field>
OPLS3e

> <r_lp_Energy>
11.609594

> <b_lp_Chiralities_Consistent>
1

> <s_lp_Variant>
135409642-1

> <s_m_job_name>
ligprep_2

> <s_m_Source_Path>
/home/andre/Documents/projects/Esterase/data/FINAL_STUFF/Compounds/MAE_external

> <s_m_Source_File>
64.mae

> <i_m_Source_File_Index>
1

> <r_lp_tautomer_probability>
1

> <s_epik_Chemistry_Notes>
This compound has an ester and may undergo hydrolysis at high or low pH.

$$$$
