66
                    3D
 Schrodinger Suite 2021-1.
 44 46  0  0  1  0            999 V2000
   -0.2482   -2.9787    2.8564 C   0  0  0  0  0  0
   -0.1770   -2.3121    1.4675 N   0  3  1  0  0  0
   -1.0921   -2.9325    0.3979 C   0  0  1  0  0  0
   -2.4682   -2.3179    0.7281 C   0  0  0  0  0  0
   -2.1712   -0.9678    1.4069 C   0  0  0  0  0  0
   -0.6338   -0.8371    1.4274 C   0  0  2  0  0  0
   -0.0472   -0.1800    0.1295 C   0  0  2  0  0  0
   -0.5177   -0.9514   -1.1500 C   0  0  2  0  0  0
   -0.5063   -2.4980   -0.9725 C   0  0  0  0  0  0
    0.1449   -0.5252   -2.3460 O   0  0  0  0  0  0
   -0.3952   -0.6771   -3.5865 C   0  0  0  0  0  0
   -1.5057   -1.1764   -3.7881 O   0  0  0  0  0  0
    0.4979   -0.1733   -4.6827 C   0  0  0  0  0  0
    0.0647   -0.2632   -6.0140 C   0  0  0  0  0  0
    0.8715    0.1948   -7.0525 C   0  0  0  0  0  0
    2.1176    0.7453   -6.7682 C   0  0  0  0  0  0
    2.5645    0.8423   -5.4538 C   0  0  0  0  0  0
    1.7590    0.3856   -4.4139 C   0  0  0  0  0  0
    1.4964   -0.0375    0.1883 C   0  0  0  0  0  0
    2.2120   -0.7831    0.8621 O   0  0  0  0  0  0
    1.9317    1.0087   -0.5462 O   0  0  0  0  0  0
    3.3168    1.3114   -0.6265 C   0  0  0  0  0  0
   -1.2748   -2.9313    3.2203 H   0  0  0  0  0  0
    0.4332   -2.4246    3.5028 H   0  0  0  0  0  0
    0.0855   -4.0088    2.7270 H   0  0  0  0  0  0
   -1.0597   -4.0170    0.5166 H   0  0  0  0  0  0
   -3.0885   -2.2054   -0.1625 H   0  0  0  0  0  0
   -3.0167   -2.9662    1.4133 H   0  0  0  0  0  0
   -2.6456   -0.1322    0.8901 H   0  0  0  0  0  0
   -2.5637   -0.9694    2.4249 H   0  0  0  0  0  0
   -0.2638   -0.3479    2.3312 H   0  0  0  0  0  0
   -0.4388    0.8358    0.0605 H   0  0  0  0  0  0
   -1.5588   -0.6547   -1.2917 H   0  0  0  0  0  0
    0.5123   -2.8811   -1.0558 H   0  0  0  0  0  0
   -1.1167   -2.9647   -1.7464 H   0  0  0  0  0  0
   -0.8988   -0.6875   -6.2602 H   0  0  0  0  0  0
    0.5311    0.1236   -8.0750 H   0  0  0  0  0  0
    2.7427    1.1000   -7.5744 H   0  0  0  0  0  0
    3.5332    1.2705   -5.2414 H   0  0  0  0  0  0
    2.1339    0.4743   -3.4044 H   0  0  0  0  0  0
    3.4685    2.1802   -1.2670 H   0  0  0  0  0  0
    3.8767    0.4762   -1.0499 H   0  0  0  0  0  0
    3.7256    1.5399    0.3587 H   0  0  0  0  0  0
    0.7810   -2.3620    1.1482 H   0  0  0  0  0  0
  1  2  1  0  0  0
  1 23  1  0  0  0
  1 24  1  0  0  0
  1 25  1  0  0  0
  2  6  1  0  0  0
  2  3  1  0  0  0
  2 44  1  0  0  0
  3  9  1  0  0  0
  3  4  1  0  0  0
  3 26  1  0  0  0
  4  5  1  0  0  0
  4 27  1  0  0  0
  4 28  1  0  0  0
  5  6  1  0  0  0
  5 29  1  0  0  0
  5 30  1  0  0  0
  6  7  1  0  0  0
  6 31  1  0  0  0
  7  8  1  0  0  0
  7 19  1  0  0  0
  7 32  1  0  0  0
  8  9  1  0  0  0
  8 10  1  0  0  0
  8 33  1  0  0  0
  9 34  1  0  0  0
  9 35  1  0  0  0
 10 11  1  0  0  0
 11 12  2  0  0  0
 11 13  1  0  0  0
 13 18  1  0  0  0
 13 14  2  0  0  0
 14 15  1  0  0  0
 14 36  1  0  0  0
 15 16  2  0  0  0
 15 37  1  0  0  0
 16 17  1  0  0  0
 16 38  1  0  0  0
 17 18  2  0  0  0
 17 39  1  0  0  0
 18 40  1  0  0  0
 19 20  2  0  0  0
 19 21  1  0  0  0
 21 22  1  0  0  0
 22 41  1  0  0  0
 22 42  1  0  0  0
 22 43  1  0  0  0
M  CHG  1   2   1
M  END
> <s_m_entry_id>
66

> <s_m_entry_name>
entry

> <i_lp_mmshare_version>
47013

> <i_f3d_flags>
0

> <s_epik_input>
W0NIM11OKFtDQEBIXTEyKVtDQEhdKFtDSDJdW0NIMl0xKVtDQEBIXShDKD1PKU9bQ0gzXSlbQ0BIXShbQ0gyXTIpT0MoPU8pYzNbY0hdW2NIXVtjSF1bY0hdW2NIXTM=

> <s_epik_cmdline>
J2VwaWtfcHl0aG9uJywgJy1waCcsICc3LjQnLCAnLXRuJywgJzgnLCAnLW1hJywgJzIwMCcsICctaW1hZScsICc8aW5maWxlLm1hZT4nLCAnLW9tYWUnLCAnPG91dGZpbGUubWFlPic=

> <r_epik_Ionization_Penalty>
  0.1514

> <r_epik_Ionization_Penalty_Charging>
  0.1514

> <r_epik_Ionization_Penalty_Neutral>
  0.0000

> <r_epik_State_Penalty>
  0.1407

> <r_epik_Charging_Adjusted_Penalty>
0.292170695440397

> <i_epik_Tot_Q>
1

> <i_epik_Tot_abs_Q>
1

> <s_lp_Force_Field>
OPLS3e

> <r_lp_Energy>
21.252301

> <b_lp_Chiralities_Consistent>
1

> <s_lp_Variant>
446220-1

> <s_m_job_name>
ligprep_3

> <s_m_Source_Path>
/home/andre/Documents/projects/Esterase/data/FINAL_STUFF/Compounds/MAE_external

> <s_m_Source_File>
66.mae

> <i_m_Source_File_Index>
1

> <s_epik_Chemistry_Notes>
This compound has an ester and may undergo hydrolysis at high or low pH.

$$$$
