68
                    3D
 Schrodinger Suite 2021-1.
 58 59  0  0  1  0            999 V2000
    2.7638    4.5813    0.8271 C   0  0  0  0  0  0
    1.4703    4.1126    1.5006 C   0  0  0  0  0  0
    0.7894    3.2197    0.6310 O   0  0  0  0  0  0
   -0.3297    2.5794    1.0304 C   0  0  0  0  0  0
   -0.8746    2.6943    2.1312 O   0  0  0  0  0  0
   -0.8952    1.6616   -0.0717 C   0  0  2  0  0  0
   -2.4381    1.6979   -0.1116 C   0  0  0  0  0  0
   -0.3716    0.2025    0.0487 C   0  0  0  0  0  0
    1.1694    0.0028    0.0022 C   0  0  1  0  0  0
    1.5659   -1.4959   -0.0136 C   0  0  0  0  0  0
    1.1942   -2.2485    1.2577 C   0  0  0  0  0  0
    0.0540   -3.0512    1.2895 C   0  0  0  0  0  0
   -0.2803   -3.7381    2.4530 C   0  0  0  0  0  0
    0.5159   -3.6378    3.6028 C   0  0  0  0  0  0
    1.6578   -2.8250    3.5545 C   0  0  0  0  0  0
    1.9960   -2.1358    2.3932 C   0  0  0  0  0  0
    0.1561   -4.3813    4.8502 C   0  0  0  0  0  0
    0.4318   -3.8395    6.1146 C   0  0  0  0  0  0
    0.0979   -4.5309    7.2763 C   0  0  0  0  0  0
   -0.5170   -5.7758    7.1851 C   0  0  0  0  0  0
   -0.7997   -6.3327    5.9419 C   0  0  0  0  0  0
   -0.4646   -5.6380    4.7828 C   0  0  0  0  0  0
    1.7639    0.7198   -1.1315 N   0  0  0  0  0  0
    3.0379    1.1451   -1.2072 C   0  0  0  0  0  0
    3.8674    0.9514   -0.3163 O   0  0  0  0  0  0
    3.4149    1.8996   -2.4909 C   0  0  0  0  0  0
    4.7092    2.7489   -2.3719 C   0  0  0  0  0  0
    5.0135    3.5818   -3.6299 C   0  0  0  0  0  0
    5.9665    4.3866   -3.5398 O   0  0  0  0  0  0
    4.3188    3.4126   -4.6579 O   0  5  0  0  0  0
    3.2936    5.2941    1.4588 H   0  0  0  0  0  0
    2.5607    5.0684   -0.1271 H   0  0  0  0  0  0
    3.4345    3.7425    0.6396 H   0  0  0  0  0  0
    1.7036    3.6173    2.4446 H   0  0  0  0  0  0
    0.8322    4.9687    1.7250 H   0  0  0  0  0  0
   -0.5446    2.0596   -1.0250 H   0  0  0  0  0  0
   -2.8091    2.7120   -0.2669 H   0  0  0  0  0  0
   -2.8789    1.3211    0.8128 H   0  0  0  0  0  0
   -2.8231    1.0881   -0.9296 H   0  0  0  0  0  0
   -0.7555   -0.2283    0.9754 H   0  0  0  0  0  0
   -0.8192   -0.3850   -0.7547 H   0  0  0  0  0  0
    1.5678    0.4355    0.9233 H   0  0  0  0  0  0
    1.1309   -1.9935   -0.8822 H   0  0  0  0  0  0
    2.6437   -1.5990   -0.1514 H   0  0  0  0  0  0
   -0.5768   -3.1410    0.4170 H   0  0  0  0  0  0
   -1.1743   -4.3441    2.4545 H   0  0  0  0  0  0
    2.3018   -2.7294    4.4163 H   0  0  0  0  0  0
    2.8817   -1.5166    2.3765 H   0  0  0  0  0  0
    0.8991   -2.8701    6.2078 H   0  0  0  0  0  0
    0.3135   -4.1017    8.2436 H   0  0  0  0  0  0
   -0.7765   -6.3135    8.0853 H   0  0  0  0  0  0
   -1.2749   -7.3005    5.8764 H   0  0  0  0  0  0
   -0.6827   -6.0929    3.8277 H   0  0  0  0  0  0
    1.1399    0.9421   -1.8933 H   0  0  0  0  0  0
    3.5357    1.1555   -3.2798 H   0  0  0  0  0  0
    2.5753    2.5364   -2.7781 H   0  0  0  0  0  0
    4.6389    3.4291   -1.5213 H   0  0  0  0  0  0
    5.5659    2.0966   -2.1953 H   0  0  0  0  0  0
  1  2  1  0  0  0
  1 31  1  0  0  0
  1 32  1  0  0  0
  1 33  1  0  0  0
  2  3  1  0  0  0
  2 34  1  0  0  0
  2 35  1  0  0  0
  3  4  1  0  0  0
  4  5  2  0  0  0
  4  6  1  0  0  0
  6  7  1  0  0  0
  6  8  1  0  0  0
  6 36  1  0  0  0
  7 37  1  0  0  0
  7 38  1  0  0  0
  7 39  1  0  0  0
  8  9  1  0  0  0
  8 40  1  0  0  0
  8 41  1  0  0  0
  9 10  1  0  0  0
  9 23  1  0  0  0
  9 42  1  0  0  0
 10 11  1  0  0  0
 10 43  1  0  0  0
 10 44  1  0  0  0
 11 12  2  0  0  0
 11 16  1  0  0  0
 12 13  1  0  0  0
 12 45  1  0  0  0
 13 14  2  0  0  0
 13 46  1  0  0  0
 14 15  1  0  0  0
 14 17  1  0  0  0
 15 16  2  0  0  0
 15 47  1  0  0  0
 16 48  1  0  0  0
 17 18  2  0  0  0
 17 22  1  0  0  0
 18 19  1  0  0  0
 18 49  1  0  0  0
 19 20  2  0  0  0
 19 50  1  0  0  0
 20 21  1  0  0  0
 20 51  1  0  0  0
 21 22  2  0  0  0
 21 52  1  0  0  0
 22 53  1  0  0  0
 23 24  1  0  0  0
 23 54  1  0  0  0
 24 25  2  0  0  0
 24 26  1  0  0  0
 26 27  1  0  0  0
 26 55  1  0  0  0
 26 56  1  0  0  0
 27 28  1  0  0  0
 27 57  1  0  0  0
 27 58  1  0  0  0
 28 29  2  0  0  0
 28 30  1  0  0  0
M  CHG  1  30  -1
M  END
> <s_m_entry_id>
68

> <s_m_entry_name>
9811834.1

> <i_lp_mmshare_version>
47013

> <i_f3d_flags>
0

> <s_epik_input>
W0NIM11bQ0gyXU9DKD1PKVtDQEhdKFtDSDNdKVtDSDJdW0NASF0oW05IXUMoPU8pW0NIMl1bQ0gyXUMoPU8pW09IXSlbQ0gyXWMxW2NIXVtjSF1jKFtjSF1bY0hdMSktYzJbY0hdW2NIXVtjSF1bY0hdW2NIXTI=

> <s_epik_cmdline>
J2VwaWtfcHl0aG9uJywgJy1waCcsICc3LjAnLCAnLXRuJywgJzgnLCAnLW1hJywgJzIwMCcsICctaW1hZScsICc8aW5maWxlLm1hZT4nLCAnLW9tYWUnLCAnPG91dGZpbGUubWFlPic=

> <r_epik_Ionization_Penalty>
  0.0180

> <r_epik_Ionization_Penalty_Charging>
  0.0180

> <r_epik_Ionization_Penalty_Neutral>
  0.0000

> <r_epik_State_Penalty>
  0.0143

> <r_epik_Charging_Adjusted_Penalty>
0.0322943528926204

> <i_epik_Tot_Q>
-1

> <i_epik_Tot_abs_Q>
1

> <s_lp_Force_Field>
OPLS3e

> <r_lp_Energy>
20.75817

> <b_lp_Chiralities_Consistent>
1

> <s_lp_Variant>
CE1_9811834_-1

> <s_m_job_name>
ligprep_35

> <s_m_Source_Path>
/home/andre/Documents/projects/Esterase/data/FINAL_STUFF/Compounds/MAE_external

> <s_m_Source_File>
68.mae

> <i_m_Source_File_Index>
1

> <s_epik_Chemistry_Notes>
This compound has an ester and may undergo hydrolysis at high or low pH.

$$$$
