71
                    3D
 Schrodinger Suite 2021-1.
 49 50  0  0  1  0            999 V2000
   -0.4273   -0.4976   -1.0384 O   0  0  0  0  0  0
    0.0993    0.1680    0.1143 C   0  0  2  0  0  0
   -0.3892    1.6297    0.0806 C   0  0  0  0  0  0
   -1.8129    1.6409    0.1426 O   0  0  0  0  0  0
   -2.4979    2.8417    0.0698 C   0  0  0  0  0  0
   -3.9247    2.7922    0.0715 C   0  0  0  0  0  0
   -4.6381    1.5632    0.1415 C   0  0  0  0  0  0
   -6.0299    1.5465    0.1377 C   0  0  0  0  0  0
   -6.7502    2.7328    0.0662 C   0  0  0  0  0  0
   -6.0907    3.9560   -0.0032 C   0  0  0  0  0  0
   -4.6741    4.0090   -0.0024 C   0  0  0  0  0  0
   -3.9856    5.2421   -0.0745 C   0  0  0  0  0  0
   -2.5968    5.2707   -0.0743 C   0  0  0  0  0  0
   -1.8645    4.0922   -0.0035 C   0  0  0  0  0  0
    1.6434    0.0594    0.1821 C   0  0  0  0  0  0
    2.2800    0.5549   -1.1312 N   0  3  0  0  0  0
    3.8184    0.5111   -1.1884 C   0  0  0  0  0  0
    4.2684    1.3627   -2.3853 C   0  0  0  0  0  0
    4.3010   -0.9485   -1.2824 C   0  0  0  0  0  0
   -0.5016   -1.8483   -1.1145 C   0  0  0  0  0  0
   -1.1005   -2.3295   -2.4361 C   0  0  0  0  0  0
   -0.1383   -2.6459   -0.2489 O   0  0  0  0  0  0
   -0.1608   -2.1010   -3.6310 C   0  0  0  0  0  0
   -0.3149   -0.2909    1.0144 H   0  0  0  0  0  0
    0.0174    2.1741    0.9350 H   0  0  0  0  0  0
   -0.0441    2.1233   -0.8302 H   0  0  0  0  0  0
   -4.0967    0.6297    0.1968 H   0  0  0  0  0  0
   -6.5550    0.6041    0.1907 H   0  0  0  0  0  0
   -7.8299    2.7044    0.0640 H   0  0  0  0  0  0
   -6.6591    4.8732   -0.0591 H   0  0  0  0  0  0
   -4.5455    6.1648   -0.1303 H   0  0  0  0  0  0
   -2.0815    6.2183   -0.1295 H   0  0  0  0  0  0
   -0.7884    4.1730   -0.0045 H   0  0  0  0  0  0
    2.0726    0.6733    0.9752 H   0  0  0  0  0  0
    1.9705   -0.9726    0.3043 H   0  0  0  0  0  0
    1.9095    0.0167   -1.9019 H   0  0  0  0  0  0
    4.1446    0.9784   -0.2574 H   0  0  0  0  0  0
    5.3565    1.4024   -2.4490 H   0  0  0  0  0  0
    3.9122    2.3902   -2.2997 H   0  0  0  0  0  0
    3.8986    0.9593   -3.3291 H   0  0  0  0  0  0
    5.3871   -0.9920   -1.3730 H   0  0  0  0  0  0
    3.8801   -1.4560   -2.1517 H   0  0  0  0  0  0
    4.0362   -1.5266   -0.3974 H   0  0  0  0  0  0
   -1.3299   -3.3922   -2.3508 H   0  0  0  0  0  0
   -2.0506   -1.8197   -2.5988 H   0  0  0  0  0  0
   -0.6113   -2.4799   -4.5485 H   0  0  0  0  0  0
    0.7914   -2.6165   -3.4973 H   0  0  0  0  0  0
    0.0477   -1.0410   -3.7837 H   0  0  0  0  0  0
    1.9929    1.5142   -1.2647 H   0  0  0  0  0  0
  1  2  1  0  0  0
  1 20  1  0  0  0
  2  3  1  0  0  0
  2 15  1  0  0  0
  2 24  1  0  0  0
  3  4  1  0  0  0
  3 25  1  0  0  0
  3 26  1  0  0  0
  4  5  1  0  0  0
  5  6  2  0  0  0
  5 14  1  0  0  0
  6  7  1  0  0  0
  6 11  1  0  0  0
  7  8  2  0  0  0
  7 27  1  0  0  0
  8  9  1  0  0  0
  8 28  1  0  0  0
  9 10  2  0  0  0
  9 29  1  0  0  0
 10 11  1  0  0  0
 10 30  1  0  0  0
 11 12  2  0  0  0
 12 13  1  0  0  0
 12 31  1  0  0  0
 13 14  2  0  0  0
 13 32  1  0  0  0
 14 33  1  0  0  0
 15 16  1  0  0  0
 15 34  1  0  0  0
 15 35  1  0  0  0
 16 17  1  0  0  0
 16 36  1  0  0  0
 16 49  1  0  0  0
 17 18  1  0  0  0
 17 19  1  0  0  0
 17 37  1  0  0  0
 18 38  1  0  0  0
 18 39  1  0  0  0
 18 40  1  0  0  0
 19 41  1  0  0  0
 19 42  1  0  0  0
 19 43  1  0  0  0
 20 21  1  0  0  0
 20 22  2  0  0  0
 21 23  1  0  0  0
 21 44  1  0  0  0
 21 45  1  0  0  0
 23 46  1  0  0  0
 23 47  1  0  0  0
 23 48  1  0  0  0
M  CHG  1  16   1
M  END
> <s_m_entry_id>
71

> <s_m_entry_name>
entry

> <i_lp_mmshare_version>
47013

> <i_f3d_flags>
0

> <s_epik_input>
W0NIM11bQ0hdKFtDSDNdKVtOSF1bQ0gyXVtDQEhdKE9DKD1PKVtDSDJdW0NIM10pW0NIMl1PYzFbY0hdW2NIXVtjSF1jKGMxMilbY0hdW2NIXVtjSF1bY0hdMg==

> <s_epik_cmdline>
J2VwaWtfcHl0aG9uJywgJy1waCcsICc3LjQnLCAnLXRuJywgJzgnLCAnLW1hJywgJzIwMCcsICctaW1hZScsICc8aW5maWxlLm1hZT4nLCAnLW9tYWUnLCAnPG91dGZpbGUubWFlPic=

> <r_epik_Ionization_Penalty>
  0.0221

> <r_epik_Ionization_Penalty_Charging>
  0.0221

> <r_epik_Ionization_Penalty_Neutral>
  0.0000

> <r_epik_State_Penalty>
  0.0178

> <r_epik_Charging_Adjusted_Penalty>
0.0398806179301065

> <i_epik_Tot_Q>
1

> <i_epik_Tot_abs_Q>
1

> <s_lp_Force_Field>
OPLS3e

> <r_lp_Energy>
26.992101

> <b_lp_Chiralities_Consistent>
1

> <s_lp_Variant>
101631876_S-1

> <s_m_job_name>
ligprep_12

> <s_m_Source_Path>
/home/andre/Documents/projects/Esterase/data/FINAL_STUFF/Compounds/MAE_external

> <s_m_Source_File>
71.mae

> <i_m_Source_File_Index>
1

> <s_epik_Chemistry_Notes>
This compound has an ester and may undergo hydrolysis at high or low pH.

$$$$
