72
                    3D
 Schrodinger Suite 2021-1.
 49 50  0  0  1  0            999 V2000
   -0.4284   -0.6551    1.0097 O   0  0  0  0  0  0
    0.1290    0.0935   -0.0731 C   0  0  1  0  0  0
   -0.3404    1.5544    0.0756 C   0  0  0  0  0  0
   -1.7608    1.5944   -0.0313 O   0  0  0  0  0  0
   -2.4294    2.7990    0.1038 C   0  0  0  0  0  0
   -3.8547    2.7794    0.0239 C   0  0  0  0  0  0
   -4.5834    1.5747   -0.1798 C   0  0  0  0  0  0
   -5.9735    1.5871   -0.2518 C   0  0  0  0  0  0
   -6.6766    2.7791   -0.1270 C   0  0  0  0  0  0
   -6.0016    3.9791    0.0733 C   0  0  0  0  0  0
   -4.5866    4.0023    0.1532 C   0  0  0  0  0  0
   -3.8828    5.2114    0.3600 C   0  0  0  0  0  0
   -2.4959    5.2105    0.4387 C   0  0  0  0  0  0
   -1.7805    4.0263    0.3121 C   0  0  0  0  0  0
    1.6693   -0.0461   -0.0787 C   0  0  0  0  0  0
    2.2463    0.5889   -1.3568 N   0  3  0  0  0  0
    3.7834    0.6557   -1.4361 C   0  0  0  0  0  0
    4.1535    1.5837   -2.6034 C   0  0  0  0  0  0
    4.3704   -0.7599   -1.5901 C   0  0  0  0  0  0
   -0.5885   -1.9976    0.9461 C   0  0  0  0  0  0
   -1.2174   -2.5534    2.2294 C   0  0  0  0  0  0
   -0.2783   -2.7157   -0.0077 O   0  0  0  0  0  0
   -1.4315   -4.0777    2.2281 C   0  0  0  0  0  0
   -0.2660   -0.2908   -1.0162 H   0  0  0  0  0  0
   -0.0157    1.9561    1.0377 H   0  0  0  0  0  0
    0.0966    2.1703   -0.7119 H   0  0  0  0  0  0
   -4.0558    0.6370   -0.2787 H   0  0  0  0  0  0
   -6.5109    0.6628   -0.4056 H   0  0  0  0  0  0
   -7.7553    2.7735   -0.1852 H   0  0  0  0  0  0
   -6.5569    4.9010    0.1707 H   0  0  0  0  0  0
   -4.4297    6.1384    0.4584 H   0  0  0  0  0  0
   -1.9686    6.1394    0.5996 H   0  0  0  0  0  0
   -0.7051    4.0845    0.3790 H   0  0  0  0  0  0
    2.1411    0.4649    0.7621 H   0  0  0  0  0  0
    1.9893   -1.0874   -0.1094 H   0  0  0  0  0  0
    1.8972    0.0901   -2.1632 H   0  0  0  0  0  0
    4.0885    1.1094   -0.4914 H   0  0  0  0  0  0
    5.2346    1.7084   -2.6752 H   0  0  0  0  0  0
    3.7218    2.5773   -2.4755 H   0  0  0  0  0  0
    3.8044    1.1892   -3.5587 H   0  0  0  0  0  0
    5.4557   -0.7198   -1.6895 H   0  0  0  0  0  0
    3.9796   -1.2636   -2.4754 H   0  0  0  0  0  0
    4.1573   -1.3884   -0.7256 H   0  0  0  0  0  0
   -0.5785   -2.2801    3.0696 H   0  0  0  0  0  0
   -2.1747   -2.0550    2.3850 H   0  0  0  0  0  0
   -1.8756   -4.4031    3.1690 H   0  0  0  0  0  0
   -0.4899   -4.6152    2.1079 H   0  0  0  0  0  0
   -2.1018   -4.3880    1.4254 H   0  0  0  0  0  0
    1.8975    1.5356   -1.4092 H   0  0  0  0  0  0
  1  2  1  0  0  0
  1 20  1  0  0  0
  2  3  1  0  0  0
  2 15  1  0  0  0
  2 24  1  0  0  0
  3  4  1  0  0  0
  3 25  1  0  0  0
  3 26  1  0  0  0
  4  5  1  0  0  0
  5  6  2  0  0  0
  5 14  1  0  0  0
  6  7  1  0  0  0
  6 11  1  0  0  0
  7  8  2  0  0  0
  7 27  1  0  0  0
  8  9  1  0  0  0
  8 28  1  0  0  0
  9 10  2  0  0  0
  9 29  1  0  0  0
 10 11  1  0  0  0
 10 30  1  0  0  0
 11 12  2  0  0  0
 12 13  1  0  0  0
 12 31  1  0  0  0
 13 14  2  0  0  0
 13 32  1  0  0  0
 14 33  1  0  0  0
 15 16  1  0  0  0
 15 34  1  0  0  0
 15 35  1  0  0  0
 16 17  1  0  0  0
 16 36  1  0  0  0
 16 49  1  0  0  0
 17 18  1  0  0  0
 17 19  1  0  0  0
 17 37  1  0  0  0
 18 38  1  0  0  0
 18 39  1  0  0  0
 18 40  1  0  0  0
 19 41  1  0  0  0
 19 42  1  0  0  0
 19 43  1  0  0  0
 20 21  1  0  0  0
 20 22  2  0  0  0
 21 23  1  0  0  0
 21 44  1  0  0  0
 21 45  1  0  0  0
 23 46  1  0  0  0
 23 47  1  0  0  0
 23 48  1  0  0  0
M  CHG  1  16   1
M  END
> <s_m_entry_id>
72

> <s_m_entry_name>
entry

> <i_lp_mmshare_version>
47013

> <i_f3d_flags>
0

> <s_epik_input>
W0NIM11bQ0hdKFtDSDNdKVtOSF1bQ0gyXVtDQEBIXShPQyg9TylbQ0gyXVtDSDNdKVtDSDJdT2MxW2NIXVtjSF1bY0hdYyhjMTIpW2NIXVtjSF1bY0hdW2NIXTI=

> <s_epik_cmdline>
J2VwaWtfcHl0aG9uJywgJy1waCcsICc3LjQnLCAnLXRuJywgJzgnLCAnLW1hJywgJzIwMCcsICctaW1hZScsICc8aW5maWxlLm1hZT4nLCAnLW9tYWUnLCAnPG91dGZpbGUubWFlPic=

> <r_epik_Ionization_Penalty>
  0.0221

> <r_epik_Ionization_Penalty_Charging>
  0.0221

> <r_epik_Ionization_Penalty_Neutral>
  0.0000

> <r_epik_State_Penalty>
  0.0178

> <r_epik_Charging_Adjusted_Penalty>
0.0398806179301065

> <i_epik_Tot_Q>
1

> <i_epik_Tot_abs_Q>
1

> <s_lp_Force_Field>
OPLS3e

> <r_lp_Energy>
27.200438

> <b_lp_Chiralities_Consistent>
1

> <s_lp_Variant>
101631875_R-1

> <s_m_job_name>
ligprep_13

> <s_m_Source_Path>
/home/andre/Documents/projects/Esterase/data/FINAL_STUFF/Compounds/MAE_external

> <s_m_Source_File>
72.mae

> <i_m_Source_File_Index>
1

> <s_epik_Chemistry_Notes>
This compound has an ester and may undergo hydrolysis at high or low pH.

$$$$
