73
                    3D
 Schrodinger Suite 2021-1.
 52 53  0  0  1  0            999 V2000
   -0.4917   -0.6179    0.9422 O   0  0  0  0  0  0
    0.0973    0.1324   -0.1221 C   0  0  1  0  0  0
   -0.3532    1.5982    0.0341 C   0  0  0  0  0  0
   -1.7725    1.6550   -0.0809 O   0  0  0  0  0  0
   -2.4327    2.8583    0.0972 C   0  0  0  0  0  0
   -3.8581    2.8500    0.0209 C   0  0  0  0  0  0
   -4.5945    1.6576   -0.2235 C   0  0  0  0  0  0
   -5.9846    1.6811   -0.2926 C   0  0  0  0  0  0
   -6.6803    2.8721   -0.1235 C   0  0  0  0  0  0
   -5.9975    4.0600    0.1187 C   0  0  0  0  0  0
   -4.5822    4.0718    0.1959 C   0  0  0  0  0  0
   -3.8703    5.2685    0.4433 C   0  0  0  0  0  0
   -2.4832    5.2569    0.5150 C   0  0  0  0  0  0
   -1.7754    4.0736    0.3442 C   0  0  0  0  0  0
    1.6349   -0.0311   -0.1023 C   0  0  0  0  0  0
    2.2399    0.5838   -1.3770 N   0  3  0  0  0  0
    3.7790    0.6212   -1.4367 C   0  0  0  0  0  0
    4.1825    1.5245   -2.6122 C   0  0  0  0  0  0
    4.3421   -0.8068   -1.5617 C   0  0  0  0  0  0
   -0.6856   -1.9545    0.8557 C   0  0  0  0  0  0
   -1.3632   -2.5092    2.1146 C   0  0  0  0  0  0
   -0.3734   -2.6674   -0.1012 O   0  0  0  0  0  0
   -1.6577   -4.0229    2.0760 C   0  0  0  0  0  0
   -2.3507   -4.5161    3.3524 C   0  0  0  0  0  0
   -0.2875   -0.2356   -1.0759 H   0  0  0  0  0  0
   -0.0286    1.9864    1.0016 H   0  0  0  0  0  0
    0.0950    2.2160   -0.7456 H   0  0  0  0  0  0
   -4.0727    0.7208   -0.3560 H   0  0  0  0  0  0
   -6.5276    0.7661   -0.4793 H   0  0  0  0  0  0
   -7.7588    2.8747   -0.1805 H   0  0  0  0  0  0
   -6.5467    4.9815    0.2499 H   0  0  0  0  0  0
   -4.4112    6.1946    0.5767 H   0  0  0  0  0  0
   -1.9498    6.1768    0.7047 H   0  0  0  0  0  0
   -0.6993    4.1226    0.4069 H   0  0  0  0  0  0
    2.1028    0.4803    0.7404 H   0  0  0  0  0  0
    1.9390   -1.0776   -0.1192 H   0  0  0  0  0  0
    1.8926    0.0850   -2.1842 H   0  0  0  0  0  0
    4.0804    1.0835   -0.4948 H   0  0  0  0  0  0
    5.2672    1.6193   -2.6764 H   0  0  0  0  0  0
    3.7764    2.5308   -2.5002 H   0  0  0  0  0  0
    3.8307    1.1277   -3.5659 H   0  0  0  0  0  0
    5.4285   -0.7870   -1.6542 H   0  0  0  0  0  0
    3.9483   -1.3196   -2.4404 H   0  0  0  0  0  0
    4.1129   -1.4155   -0.6872 H   0  0  0  0  0  0
   -0.7296   -2.2838    2.9727 H   0  0  0  0  0  0
   -2.2958   -1.9646    2.2663 H   0  0  0  0  0  0
   -2.2883   -4.2588    1.2169 H   0  0  0  0  0  0
   -0.7298   -4.5804    1.9367 H   0  0  0  0  0  0
   -2.5509   -5.5865    3.2981 H   0  0  0  0  0  0
   -3.3039   -4.0091    3.5062 H   0  0  0  0  0  0
   -1.7317   -4.3397    4.2329 H   0  0  0  0  0  0
    1.9089    1.5361   -1.4413 H   0  0  0  0  0  0
  1  2  1  0  0  0
  1 20  1  0  0  0
  2  3  1  0  0  0
  2 15  1  0  0  0
  2 25  1  0  0  0
  3  4  1  0  0  0
  3 26  1  0  0  0
  3 27  1  0  0  0
  4  5  1  0  0  0
  5  6  2  0  0  0
  5 14  1  0  0  0
  6  7  1  0  0  0
  6 11  1  0  0  0
  7  8  2  0  0  0
  7 28  1  0  0  0
  8  9  1  0  0  0
  8 29  1  0  0  0
  9 10  2  0  0  0
  9 30  1  0  0  0
 10 11  1  0  0  0
 10 31  1  0  0  0
 11 12  2  0  0  0
 12 13  1  0  0  0
 12 32  1  0  0  0
 13 14  2  0  0  0
 13 33  1  0  0  0
 14 34  1  0  0  0
 15 16  1  0  0  0
 15 35  1  0  0  0
 15 36  1  0  0  0
 16 17  1  0  0  0
 16 37  1  0  0  0
 16 52  1  0  0  0
 17 18  1  0  0  0
 17 19  1  0  0  0
 17 38  1  0  0  0
 18 39  1  0  0  0
 18 40  1  0  0  0
 18 41  1  0  0  0
 19 42  1  0  0  0
 19 43  1  0  0  0
 19 44  1  0  0  0
 20 21  1  0  0  0
 20 22  2  0  0  0
 21 23  1  0  0  0
 21 45  1  0  0  0
 21 46  1  0  0  0
 23 24  1  0  0  0
 23 47  1  0  0  0
 23 48  1  0  0  0
 24 49  1  0  0  0
 24 50  1  0  0  0
 24 51  1  0  0  0
M  CHG  1  16   1
M  END
> <s_m_entry_id>
73

> <s_m_entry_name>
entry

> <i_lp_mmshare_version>
47013

> <i_f3d_flags>
0

> <s_epik_input>
W0NIM11bQ0gyXVtDSDJdQyg9TylPW0NASF0oW0NIMl1bTkhdW0NIXShbQ0gzXSlbQ0gzXSlbQ0gyXU9jMVtjSF1bY0hdW2NIXWMoYzEyKVtjSF1bY0hdW2NIXVtjSF0y

> <s_epik_cmdline>
J2VwaWtfcHl0aG9uJywgJy1waCcsICc3LjQnLCAnLXRuJywgJzgnLCAnLW1hJywgJzIwMCcsICctaW1hZScsICc8aW5maWxlLm1hZT4nLCAnLW9tYWUnLCAnPG91dGZpbGUubWFlPic=

> <r_epik_Ionization_Penalty>
  0.0219

> <r_epik_Ionization_Penalty_Charging>
  0.0219

> <r_epik_Ionization_Penalty_Neutral>
  0.0000

> <r_epik_State_Penalty>
  0.0176

> <r_epik_Charging_Adjusted_Penalty>
0.0394478806989477

> <i_epik_Tot_Q>
1

> <i_epik_Tot_abs_Q>
1

> <s_lp_Force_Field>
OPLS3e

> <r_lp_Energy>
27.775163

> <b_lp_Chiralities_Consistent>
1

> <s_lp_Variant>
91146589_r-1

> <s_m_job_name>
ligprep_14

> <s_m_Source_Path>
/home/andre/Documents/projects/Esterase/data/FINAL_STUFF/Compounds/MAE_external

> <s_m_Source_File>
73.mae

> <i_m_Source_File_Index>
1

> <s_epik_Chemistry_Notes>
This compound has an ester and may undergo hydrolysis at high or low pH.

$$$$
