75
                    3D
 Schrodinger Suite 2021-1.
 61 62  0  0  1  0            999 V2000
    0.4066    0.0502    0.0131 O   0  0  0  0  0  0
    1.8250   -0.1268   -0.0647 C   0  0  1  0  0  0
    2.1252   -1.6268    0.1214 C   0  0  0  0  0  0
    1.6937   -2.0202    1.4212 O   0  0  0  0  0  0
    1.8705   -3.3267    1.8428 C   0  0  0  0  0  0
    1.3962   -3.6732    3.1440 C   0  0  0  0  0  0
    0.7555   -2.7268    3.9916 C   0  0  0  0  0  0
    0.3029   -3.0947    5.2555 C   0  0  0  0  0  0
    0.4695   -4.3958    5.7143 C   0  0  0  0  0  0
    1.0904   -5.3516    4.9163 C   0  0  0  0  0  0
    1.5622   -5.0112    3.6235 C   0  0  0  0  0  0
    2.1948   -5.9687    2.7968 C   0  0  0  0  0  0
    2.6478   -5.6136    1.5326 C   0  0  0  0  0  0
    2.4884   -4.3160    1.0622 C   0  0  0  0  0  0
    2.4003    0.4375   -1.3872 C   0  0  0  0  0  0
    1.6520   -0.1519   -2.5986 N   0  3  0  0  0  0
    2.0159    0.4485   -3.9694 C   0  0  0  0  0  0
    0.9670   -0.0302   -4.9848 C   0  0  0  0  0  0
    3.4509    0.0492   -4.3598 C   0  0  0  0  0  0
   -0.1488    1.2463    0.3144 C   0  0  0  0  0  0
   -1.6797    1.1657    0.3502 C   0  0  0  0  0  0
    0.4673    2.2905    0.5407 O   0  0  0  0  0  0
   -2.3825    2.4648    0.7960 C   0  0  0  0  0  0
   -3.9141    2.3260    0.8164 C   0  0  0  0  0  0
   -4.6244    3.6109    1.2848 C   0  0  0  0  0  0
   -6.1631    3.5327    1.2541 C   0  0  0  0  0  0
   -6.7649    2.5218    2.2426 C   0  0  0  0  0  0
    2.3014    0.4000    0.7647 H   0  0  0  0  0  0
    1.6158   -2.2179   -0.6422 H   0  0  0  0  0  0
    3.1985   -1.7993    0.0228 H   0  0  0  0  0  0
    0.6156   -1.7100    3.6540 H   0  0  0  0  0  0
   -0.1819   -2.3628    5.8851 H   0  0  0  0  0  0
    0.1136   -4.6670    6.6974 H   0  0  0  0  0  0
    1.2154   -6.3611    5.2815 H   0  0  0  0  0  0
    2.3243   -6.9805    3.1534 H   0  0  0  0  0  0
    3.1293   -6.3530    0.9094 H   0  0  0  0  0  0
    2.8591   -4.0949    0.0732 H   0  0  0  0  0  0
    2.2681    1.5178   -1.4628 H   0  0  0  0  0  0
    3.4534    0.1887   -1.5192 H   0  0  0  0  0  0
    1.7973   -1.1511   -2.6279 H   0  0  0  0  0  0
    1.9302    1.5276   -3.8296 H   0  0  0  0  0  0
    1.1493    0.4038   -5.9687 H   0  0  0  0  0  0
   -0.0404    0.2614   -4.6846 H   0  0  0  0  0  0
    0.9800   -1.1153   -5.0970 H   0  0  0  0  0  0
    3.7029    0.4319   -5.3496 H   0  0  0  0  0  0
    3.5740   -1.0344   -4.3874 H   0  0  0  0  0  0
    4.1907    0.4529   -3.6687 H   0  0  0  0  0  0
   -2.0306    0.8869   -0.6437 H   0  0  0  0  0  0
   -1.9647    0.3525    1.0189 H   0  0  0  0  0  0
   -2.0340    2.7471    1.7914 H   0  0  0  0  0  0
   -2.1037    3.2835    0.1300 H   0  0  0  0  0  0
   -4.2665    2.0599   -0.1815 H   0  0  0  0  0  0
   -4.1864    1.4965    1.4700 H   0  0  0  0  0  0
   -4.2951    3.8651    2.2935 H   0  0  0  0  0  0
   -4.3087    4.4410    0.6511 H   0  0  0  0  0  0
   -6.5675    4.5204    1.4795 H   0  0  0  0  0  0
   -6.4993    3.2975    0.2433 H   0  0  0  0  0  0
   -7.8541    2.5664    2.2251 H   0  0  0  0  0  0
   -6.4431    2.7265    3.2643 H   0  0  0  0  0  0
   -6.4778    1.4991    1.9977 H   0  0  0  0  0  0
    0.6657    0.0078   -2.4470 H   0  0  0  0  0  0
  1  2  1  0  0  0
  1 20  1  0  0  0
  2  3  1  0  0  0
  2 15  1  0  0  0
  2 28  1  0  0  0
  3  4  1  0  0  0
  3 29  1  0  0  0
  3 30  1  0  0  0
  4  5  1  0  0  0
  5  6  2  0  0  0
  5 14  1  0  0  0
  6  7  1  0  0  0
  6 11  1  0  0  0
  7  8  2  0  0  0
  7 31  1  0  0  0
  8  9  1  0  0  0
  8 32  1  0  0  0
  9 10  2  0  0  0
  9 33  1  0  0  0
 10 11  1  0  0  0
 10 34  1  0  0  0
 11 12  2  0  0  0
 12 13  1  0  0  0
 12 35  1  0  0  0
 13 14  2  0  0  0
 13 36  1  0  0  0
 14 37  1  0  0  0
 15 16  1  0  0  0
 15 38  1  0  0  0
 15 39  1  0  0  0
 16 17  1  0  0  0
 16 40  1  0  0  0
 16 61  1  0  0  0
 17 18  1  0  0  0
 17 19  1  0  0  0
 17 41  1  0  0  0
 18 42  1  0  0  0
 18 43  1  0  0  0
 18 44  1  0  0  0
 19 45  1  0  0  0
 19 46  1  0  0  0
 19 47  1  0  0  0
 20 21  1  0  0  0
 20 22  2  0  0  0
 21 23  1  0  0  0
 21 48  1  0  0  0
 21 49  1  0  0  0
 23 24  1  0  0  0
 23 50  1  0  0  0
 23 51  1  0  0  0
 24 25  1  0  0  0
 24 52  1  0  0  0
 24 53  1  0  0  0
 25 26  1  0  0  0
 25 54  1  0  0  0
 25 55  1  0  0  0
 26 27  1  0  0  0
 26 56  1  0  0  0
 26 57  1  0  0  0
 27 58  1  0  0  0
 27 59  1  0  0  0
 27 60  1  0  0  0
M  CHG  1  16   1
M  END
> <s_m_entry_id>
75

> <s_m_entry_name>
entry

> <i_lp_mmshare_version>
47013

> <i_f3d_flags>
0

> <s_epik_input>
W0NIM11bQ0gyXVtDSDJdW0NIMl1bQ0gyXVtDSDJdQyg9TylPW0NASF0oW0NIMl1bTkhdW0NIXShbQ0gzXSlbQ0gzXSlbQ0gyXU9jMVtjSF1bY0hdW2NIXWMoYzEyKVtjSF1bY0hdW2NIXVtjSF0y

> <s_epik_cmdline>
J2VwaWtfcHl0aG9uJywgJy1waCcsICc3LjQnLCAnLXRuJywgJzgnLCAnLW1hJywgJzIwMCcsICctaW1hZScsICc8aW5maWxlLm1hZT4nLCAnLW9tYWUnLCAnPG91dGZpbGUubWFlPic=

> <r_epik_Ionization_Penalty>
  0.0218

> <r_epik_Ionization_Penalty_Charging>
  0.0218

> <r_epik_Ionization_Penalty_Neutral>
  0.0000

> <r_epik_State_Penalty>
  0.0175

> <r_epik_Charging_Adjusted_Penalty>
0.0393322994553355

> <i_epik_Tot_Q>
1

> <i_epik_Tot_abs_Q>
1

> <s_lp_Force_Field>
OPLS3e

> <r_lp_Energy>
27.880055

> <b_lp_Chiralities_Consistent>
1

> <s_lp_Variant>
M83_r-1

> <s_m_job_name>
ligprep_18

> <s_m_Source_Path>
/home/andre/Documents/projects/Esterase/data/FINAL_STUFF/Compounds/MAE_external

> <s_m_Source_File>
75.mae

> <i_m_Source_File_Index>
1

> <s_epik_Chemistry_Notes>
This compound has an ester and may undergo hydrolysis at high or low pH.

$$$$
