76
                    3D
 Schrodinger Suite 2021-1.
 52 53  0  0  1  0            999 V2000
   -0.4062   -0.7929   -0.9732 O   0  0  0  0  0  0
    0.0665   -0.0532    0.1561 C   0  0  2  0  0  0
   -0.5881    1.3405    0.0772 C   0  0  0  0  0  0
   -0.1623    2.1339    1.1824 O   0  0  0  0  0  0
   -0.5768    3.4514    1.2825 C   0  0  0  0  0  0
   -0.0938    4.2190    2.3854 C   0  0  0  0  0  0
    0.7817    3.6697    3.3631 C   0  0  0  0  0  0
    1.2367    4.4439    4.4267 C   0  0  0  0  0  0
    0.8442    5.7709    4.5536 C   0  0  0  0  0  0
   -0.0109    6.3460    3.6189 C   0  0  0  0  0  0
   -0.4938    5.5860    2.5242 C   0  0  0  0  0  0
   -1.3650    6.1530    1.5655 C   0  0  0  0  0  0
   -1.8279    5.3900    0.5015 C   0  0  0  0  0  0
   -1.4415    4.0632    0.3610 C   0  0  0  0  0  0
    1.6159   -0.0011    0.1975 C   0  0  0  0  0  0
    2.1693    0.5636   -1.1244 N   0  3  0  0  0  0
    3.7020    0.6712   -1.2213 C   0  0  0  0  0  0
    4.0311    1.5680   -2.4244 C   0  0  0  0  0  0
    4.3232   -0.7332   -1.3383 C   0  0  0  0  0  0
   -0.3289   -2.1471   -1.0347 C   0  0  0  0  0  0
    0.1224   -2.8838   -0.1566 O   0  0  0  0  0  0
   -0.8653   -2.7225   -2.3549 C   0  0  0  0  0  0
   -0.0272   -2.2571   -3.5629 C   0  0  0  0  0  0
   -2.3684   -2.4317   -2.5379 C   0  0  0  0  0  0
   -0.2939   -0.5337    1.0679 H   0  0  0  0  0  0
   -0.3194    1.8264   -0.8631 H   0  0  0  0  0  0
   -1.6746    1.2361    0.1011 H   0  0  0  0  0  0
    1.0982    2.6400    3.2837 H   0  0  0  0  0  0
    1.8998    4.0097    5.1605 H   0  0  0  0  0  0
    1.2051    6.3598    5.3841 H   0  0  0  0  0  0
   -0.3117    7.3785    3.7257 H   0  0  0  0  0  0
   -1.6713    7.1846    1.6651 H   0  0  0  0  0  0
   -2.4954    5.8319   -0.2237 H   0  0  0  0  0  0
   -1.8339    3.5182   -0.4837 H   0  0  0  0  0  0
    1.9963    0.6521    0.9841 H   0  0  0  0  0  0
    2.0519   -0.9931    0.3095 H   0  0  0  0  0  0
    1.8324   -0.0002   -1.8920 H   0  0  0  0  0  0
    4.0046    1.1645   -0.2958 H   0  0  0  0  0  0
    5.1075    1.7163   -2.5174 H   0  0  0  0  0  0
    3.5764    2.5543   -2.3228 H   0  0  0  0  0  0
    3.6771    1.1329   -3.3601 H   0  0  0  0  0  0
    5.4052   -0.6685   -1.4586 H   0  0  0  0  0  0
    3.9307   -1.2762   -2.1993 H   0  0  0  0  0  0
    4.1421   -1.3385   -0.4504 H   0  0  0  0  0  0
   -0.7552   -3.8059   -2.2874 H   0  0  0  0  0  0
    1.0199   -2.5452   -3.4577 H   0  0  0  0  0  0
   -0.0622   -1.1740   -3.6910 H   0  0  0  0  0  0
   -0.3922   -2.7073   -4.4868 H   0  0  0  0  0  0
   -2.9569   -2.8398   -1.7148 H   0  0  0  0  0  0
   -2.7447   -2.8843   -3.4559 H   0  0  0  0  0  0
   -2.5737   -1.3614   -2.5929 H   0  0  0  0  0  0
    1.7878    1.4923   -1.2377 H   0  0  0  0  0  0
  1  2  1  0  0  0
  1 20  1  0  0  0
  2  3  1  0  0  0
  2 15  1  0  0  0
  2 25  1  0  0  0
  3  4  1  0  0  0
  3 26  1  0  0  0
  3 27  1  0  0  0
  4  5  1  0  0  0
  5  6  2  0  0  0
  5 14  1  0  0  0
  6  7  1  0  0  0
  6 11  1  0  0  0
  7  8  2  0  0  0
  7 28  1  0  0  0
  8  9  1  0  0  0
  8 29  1  0  0  0
  9 10  2  0  0  0
  9 30  1  0  0  0
 10 11  1  0  0  0
 10 31  1  0  0  0
 11 12  2  0  0  0
 12 13  1  0  0  0
 12 32  1  0  0  0
 13 14  2  0  0  0
 13 33  1  0  0  0
 14 34  1  0  0  0
 15 16  1  0  0  0
 15 35  1  0  0  0
 15 36  1  0  0  0
 16 17  1  0  0  0
 16 37  1  0  0  0
 16 52  1  0  0  0
 17 18  1  0  0  0
 17 19  1  0  0  0
 17 38  1  0  0  0
 18 39  1  0  0  0
 18 40  1  0  0  0
 18 41  1  0  0  0
 19 42  1  0  0  0
 19 43  1  0  0  0
 19 44  1  0  0  0
 20 21  2  0  0  0
 20 22  1  0  0  0
 22 23  1  0  0  0
 22 24  1  0  0  0
 22 45  1  0  0  0
 23 46  1  0  0  0
 23 47  1  0  0  0
 23 48  1  0  0  0
 24 49  1  0  0  0
 24 50  1  0  0  0
 24 51  1  0  0  0
M  CHG  1  16   1
M  END
> <s_m_entry_id>
76

> <s_m_entry_name>
entry

> <i_lp_mmshare_version>
47013

> <i_f3d_flags>
0

> <s_epik_input>
W0NIM11bQ0hdKFtDSDNdKVtOSF1bQ0gyXVtDQEhdKE9DKD1PKVtDSF0oW0NIM10pW0NIM10pW0NIMl1PYzFbY0hdW2NIXVtjSF1jKGMxMilbY0hdW2NIXVtjSF1bY0hdMg==

> <s_epik_cmdline>
J2VwaWtfcHl0aG9uJywgJy1waCcsICc3LjQnLCAnLXRuJywgJzgnLCAnLW1hJywgJzIwMCcsICctaW1hZScsICc8aW5maWxlLm1hZT4nLCAnLW9tYWUnLCAnPG91dGZpbGUubWFlPic=

> <r_epik_Ionization_Penalty>
  0.0221

> <r_epik_Ionization_Penalty_Charging>
  0.0221

> <r_epik_Ionization_Penalty_Neutral>
  0.0000

> <r_epik_State_Penalty>
  0.0178

> <r_epik_Charging_Adjusted_Penalty>
0.0398806179301065

> <i_epik_Tot_Q>
1

> <i_epik_Tot_abs_Q>
1

> <s_lp_Force_Field>
OPLS3e

> <r_lp_Energy>
29.296966

> <b_lp_Chiralities_Consistent>
1

> <s_lp_Variant>
102094118s-1

> <s_m_job_name>
ligprep_19

> <s_m_Source_Path>
/home/andre/Documents/projects/Esterase/data/FINAL_STUFF/Compounds/MAE_external

> <s_m_Source_File>
76.mae

> <i_m_Source_File_Index>
1

> <s_epik_Chemistry_Notes>
This compound has an ester and may undergo hydrolysis at high or low pH.

$$$$
