77
                    3D
 Schrodinger Suite 2021-1.
 59 61  0  0  1  0            999 V2000
   -0.1320   -0.6796    0.8790 O   0  0  0  0  0  0
    0.4083    0.0845   -0.2002 C   0  0  1  0  0  0
   -0.1885    1.5018   -0.0989 C   0  0  0  0  0  0
   -1.6064    1.4024   -0.2081 O   0  0  0  0  0  0
   -2.4000    2.5079    0.0429 C   0  0  0  0  0  0
   -3.8152    2.3214    0.0393 C   0  0  0  0  0  0
   -4.4090    1.0538   -0.2132 C   0  0  0  0  0  0
   -5.7922    0.9000   -0.2016 C   0  0  0  0  0  0
   -6.6209    1.9856    0.0551 C   0  0  0  0  0  0
   -6.0802    3.2433    0.3042 C   0  0  0  0  0  0
   -4.6755    3.4343    0.3012 C   0  0  0  0  0  0
   -4.1059    4.7041    0.5533 C   0  0  0  0  0  0
   -2.7264    4.8675    0.5465 C   0  0  0  0  0  0
   -1.8866    3.7893    0.2958 C   0  0  0  0  0  0
    1.9528    0.0723   -0.1439 C   0  0  0  0  0  0
    2.5272    0.6879   -1.4323 N   0  3  0  0  0  0
    4.0600    0.8388   -1.4720 C   0  0  0  0  0  0
    4.4157    1.7267   -2.6745 C   0  0  0  0  0  0
    4.7304   -0.5465   -1.5369 C   0  0  0  0  0  0
   -0.1885   -2.0338    0.8505 C   0  0  0  0  0  0
    0.2580   -2.7440   -0.0538 O   0  0  0  0  0  0
   -0.8843   -2.6224    2.1014 C   0  0  0  0  0  0
   -1.0782   -4.1616    2.0523 C   0  0  0  0  0  0
   -2.2017   -4.5893    1.0795 C   0  0  0  0  0  0
   -3.5271   -3.8467    1.3611 C   0  0  0  0  0  0
   -3.3489   -2.3150    1.4437 C   0  0  0  0  0  0
   -2.2309   -1.9263    2.4357 C   0  0  0  0  0  0
    0.0809   -0.3525   -1.1462 H   0  0  0  0  0  0
    0.0979    1.9512    0.8544 H   0  0  0  0  0  0
    0.1913    2.1373   -0.9006 H   0  0  0  0  0  0
   -3.7821    0.1982   -0.4171 H   0  0  0  0  0  0
   -6.2249   -0.0707   -0.3943 H   0  0  0  0  0  0
   -7.6927    1.8519    0.0601 H   0  0  0  0  0  0
   -6.7325    4.0817    0.5023 H   0  0  0  0  0  0
   -4.7495    5.5493    0.7507 H   0  0  0  0  0  0
   -2.3024    5.8423    0.7381 H   0  0  0  0  0  0
   -0.8233    3.9726    0.2992 H   0  0  0  0  0  0
    2.3507    0.6599    0.6849 H   0  0  0  0  0  0
    2.3542   -0.9402   -0.1090 H   0  0  0  0  0  0
    2.2324    0.1352   -2.2253 H   0  0  0  0  0  0
    4.3100    1.3556   -0.5437 H   0  0  0  0  0  0
    5.4906    1.9055   -2.7219 H   0  0  0  0  0  0
    3.9290    2.7010   -2.6102 H   0  0  0  0  0  0
    4.1175    1.2668   -3.6180 H   0  0  0  0  0  0
    5.8131   -0.4490   -1.6249 H   0  0  0  0  0  0
    4.3832   -1.1216   -2.3965 H   0  0  0  0  0  0
    4.5411   -1.1365   -0.6404 H   0  0  0  0  0  0
   -0.1931   -2.4165    2.9192 H   0  0  0  0  0  0
   -0.1381   -4.6773    1.8503 H   0  0  0  0  0  0
   -1.3596   -4.4980    3.0515 H   0  0  0  0  0  0
   -1.8924   -4.3991    0.0512 H   0  0  0  0  0  0
   -2.3603   -5.6659    1.1491 H   0  0  0  0  0  0
   -4.2601   -4.0936    0.5920 H   0  0  0  0  0  0
   -3.9450   -4.2073    2.3022 H   0  0  0  0  0  0
   -3.1145   -1.9227    0.4534 H   0  0  0  0  0  0
   -4.2884   -1.8467    1.7398 H   0  0  0  0  0  0
   -2.5407   -2.2467    3.4318 H   0  0  0  0  0  0
   -2.1216   -0.8446    2.5290 H   0  0  0  0  0  0
    2.1253    1.6089   -1.5363 H   0  0  0  0  0  0
  1  2  1  0  0  0
  1 20  1  0  0  0
  2  3  1  0  0  0
  2 15  1  0  0  0
  2 28  1  0  0  0
  3  4  1  0  0  0
  3 29  1  0  0  0
  3 30  1  0  0  0
  4  5  1  0  0  0
  5  6  1  0  0  0
  5 14  2  0  0  0
  6  7  2  0  0  0
  6 11  1  0  0  0
  7  8  1  0  0  0
  7 31  1  0  0  0
  8  9  2  0  0  0
  8 32  1  0  0  0
  9 10  1  0  0  0
  9 33  1  0  0  0
 10 11  2  0  0  0
 10 34  1  0  0  0
 11 12  1  0  0  0
 12 13  2  0  0  0
 12 35  1  0  0  0
 13 14  1  0  0  0
 13 36  1  0  0  0
 14 37  1  0  0  0
 15 16  1  0  0  0
 15 38  1  0  0  0
 15 39  1  0  0  0
 16 17  1  0  0  0
 16 40  1  0  0  0
 16 59  1  0  0  0
 17 18  1  0  0  0
 17 19  1  0  0  0
 17 41  1  0  0  0
 18 42  1  0  0  0
 18 43  1  0  0  0
 18 44  1  0  0  0
 19 45  1  0  0  0
 19 46  1  0  0  0
 19 47  1  0  0  0
 20 21  2  0  0  0
 20 22  1  0  0  0
 22 27  1  0  0  0
 22 23  1  0  0  0
 22 48  1  0  0  0
 23 24  1  0  0  0
 23 49  1  0  0  0
 23 50  1  0  0  0
 24 25  1  0  0  0
 24 51  1  0  0  0
 24 52  1  0  0  0
 25 26  1  0  0  0
 25 53  1  0  0  0
 25 54  1  0  0  0
 26 27  1  0  0  0
 26 55  1  0  0  0
 26 56  1  0  0  0
 27 57  1  0  0  0
 27 58  1  0  0  0
M  CHG  1  16   1
M  END
> <s_m_entry_id>
77

> <s_m_entry_name>
entry

> <i_lp_mmshare_version>
47013

> <i_f3d_flags>
0

> <s_epik_input>
W0NIMl0xW0NIMl1bQ0gyXVtDSDJdW0NIMl1bQ0hdMUMoPU8pT1tDQEhdKFtDSDJdW05IXVtDSF0oW0NIM10pW0NIM10pW0NIMl1PYzJbY0hdW2NIXVtjSF1jKGMyMylbY0hdW2NIXVtjSF1bY0hdMw==

> <s_epik_cmdline>
J2VwaWtfcHl0aG9uJywgJy1waCcsICc3LjQnLCAnLXRuJywgJzgnLCAnLW1hJywgJzIwMCcsICctaW1hZScsICc8aW5maWxlLm1hZT4nLCAnLW9tYWUnLCAnPG91dGZpbGUubWFlPic=

> <r_epik_Ionization_Penalty>
  0.0215

> <r_epik_Ionization_Penalty_Charging>
  0.0215

> <r_epik_Ionization_Penalty_Neutral>
  0.0000

> <r_epik_State_Penalty>
  0.0173

> <r_epik_Charging_Adjusted_Penalty>
0.0387914050852736

> <i_epik_Tot_Q>
1

> <i_epik_Tot_abs_Q>
1

> <s_lp_Force_Field>
OPLS3e

> <r_lp_Energy>
30.710681

> <b_lp_Chiralities_Consistent>
1

> <s_lp_Variant>
cp16_r-1

> <s_m_job_name>
ligprep_22

> <s_m_Source_Path>
/home/andre/Documents/projects/Esterase/data/FINAL_STUFF/Compounds/MAE_external

> <s_m_Source_File>
77.mae

> <i_m_Source_File_Index>
1

> <s_epik_Chemistry_Notes>
This compound has an ester and may undergo hydrolysis at high or low pH.

$$$$
