78
                    3D
 Schrodinger Suite 2021-1.
 72 75  0  0  1  0            999 V2000
   -3.4172    0.5863    4.5752 C   0  0  0  0  0  0
   -2.8814    1.4450    3.4139 C   0  0  0  0  0  0
   -3.9741    1.7617    2.3825 C   0  0  0  0  0  0
   -1.8251    0.7706    2.7319 O   0  0  0  0  0  0
   -0.5471    0.7599    3.2070 C   0  0  0  0  0  0
   -0.1784    1.3137    4.2447 O   0  0  0  0  0  0
    0.4136   -0.0468    2.3471 C   0  0  1  0  0  0
    0.5939   -1.4563    2.9404 C   0  0  0  0  0  0
    0.0403   -0.0921    0.9306 N   0  0  3  0  0  0
    0.6748    0.9720   -0.2325 P   0  0  1  0  0  0
    0.6222    2.4235    0.0955 O   0  0  0  0  0  0
    2.1775    0.3852   -0.4737 O   0  0  0  0  0  0
    2.9849    0.8345   -1.5516 C   0  0  0  0  0  0
    3.6254    2.2072   -1.2593 C   0  0  2  0  0  0
    4.6877    2.6496   -2.2716 C   0  0  2  0  0  0
    5.6778    3.4644   -1.4374 C   0  0  1  0  0  0
    5.5649    2.7870   -0.0597 C   0  0  1  0  0  0
    4.3130    2.1661   -0.0111 O   0  0  0  0  0  0
    6.6084    1.8483    0.3276 N   0  0  0  0  0  0
    7.5428    2.0282    1.3326 C   0  0  0  0  0  0
    8.3926    1.0460    1.4952 N   0  0  0  0  0  0
    8.0209    0.1405    0.5427 C   0  0  0  0  0  0
    6.9142    0.6060   -0.2080 C   0  0  0  0  0  0
    6.3359   -0.0663   -1.2118 N   0  0  0  0  0  0
    6.9041   -1.2758   -1.4656 C   0  0  0  0  0  0
    7.9609   -1.8389   -0.8255 N   0  0  0  0  0  0
    8.5232   -1.1211    0.1896 C   0  0  0  0  0  0
    9.6015   -1.6102    0.9026 O   0  0  0  0  0  0
   10.1250   -2.8924    0.5648 C   0  0  0  0  0  0
    6.3388   -2.0190   -2.4953 N   0  0  0  0  0  0
    7.1104    3.5895   -1.9985 C   0  0  0  0  0  0
    5.2257    4.7166   -1.3011 F   0  0  0  0  0  0
    4.1365    3.3613   -3.3654 O   0  0  0  0  0  0
   -0.1093    0.5521   -1.6029 O   0  0  0  0  0  0
   -1.4711    0.5274   -1.7865 C   0  0  0  0  0  0
   -2.3344    1.4074   -1.1215 C   0  0  0  0  0  0
   -3.7069    1.3390   -1.3453 C   0  0  0  0  0  0
   -4.2146    0.3969   -2.2370 C   0  0  0  0  0  0
   -3.3614   -0.4746   -2.9102 C   0  0  0  0  0  0
   -1.9889   -0.4055   -2.6856 C   0  0  0  0  0  0
   -4.2381    1.0889    5.0871 H   0  0  0  0  0  0
   -2.6425    0.3927    5.3174 H   0  0  0  0  0  0
   -3.7852   -0.3771    4.2207 H   0  0  0  0  0  0
   -2.5143    2.3937    3.8099 H   0  0  0  0  0  0
   -4.8189    2.2710    2.8472 H   0  0  0  0  0  0
   -4.3513    0.8561    1.9054 H   0  0  0  0  0  0
   -3.5912    2.4163    1.5992 H   0  0  0  0  0  0
    1.3781    0.4608    2.3999 H   0  0  0  0  0  0
    0.9487   -1.4193    3.9717 H   0  0  0  0  0  0
    1.3309   -2.0248    2.3715 H   0  0  0  0  0  0
   -0.3375   -2.0250    2.9284 H   0  0  0  0  0  0
   -0.7167   -0.7303    0.6836 H   0  0  0  0  0  0
    3.7540    0.0824   -1.7169 H   0  0  0  0  0  0
    2.4021    0.8754   -2.4731 H   0  0  0  0  0  0
    2.8452    2.9631   -1.1619 H   0  0  0  0  0  0
    5.2014    1.7734   -2.6660 H   0  0  0  0  0  0
    5.5742    3.5452    0.7263 H   0  0  0  0  0  0
    7.5267    2.9382    1.9150 H   0  0  0  0  0  0
   10.9611   -3.1275    1.2233 H   0  0  0  0  0  0
   10.4936   -2.9143   -0.4620 H   0  0  0  0  0  0
    9.3747   -3.6750    0.6887 H   0  0  0  0  0  0
    6.7190   -2.9286   -2.7115 H   0  0  0  0  0  0
    5.5424   -1.6494   -2.9932 H   0  0  0  0  0  0
    7.5600    2.6138   -2.1837 H   0  0  0  0  0  0
    7.7603    4.1297   -1.3090 H   0  0  0  0  0  0
    7.1133    4.1301   -2.9454 H   0  0  0  0  0  0
    4.8501    3.6148   -3.9553 H   0  0  0  0  0  0
   -1.9509    2.1430   -0.4308 H   0  0  0  0  0  0
   -4.3745    2.0141   -0.8304 H   0  0  0  0  0  0
   -5.2794    0.3436   -2.4098 H   0  0  0  0  0  0
   -3.7623   -1.2012   -3.6014 H   0  0  0  0  0  0
   -1.3249   -1.0801   -3.2062 H   0  0  0  0  0  0
  1  2  1  0  0  0
  1 41  1  0  0  0
  1 42  1  0  0  0
  1 43  1  0  0  0
  2  3  1  0  0  0
  2  4  1  0  0  0
  2 44  1  0  0  0
  3 45  1  0  0  0
  3 46  1  0  0  0
  3 47  1  0  0  0
  4  5  1  0  0  0
  5  6  2  0  0  0
  5  7  1  0  0  0
  7  8  1  0  0  0
  7  9  1  0  0  0
  7 48  1  0  0  0
  8 49  1  0  0  0
  8 50  1  0  0  0
  8 51  1  0  0  0
  9 10  1  0  0  0
  9 52  1  0  0  0
 10 11  2  0  0  0
 10 12  1  0  0  0
 10 34  1  0  0  0
 12 13  1  0  0  0
 13 14  1  0  0  0
 13 53  1  0  0  0
 13 54  1  0  0  0
 14 18  1  0  0  0
 14 15  1  0  0  0
 14 55  1  0  0  0
 15 16  1  0  0  0
 15 33  1  0  0  0
 15 56  1  0  0  0
 16 17  1  0  0  0
 16 31  1  0  0  0
 16 32  1  0  0  0
 17 18  1  0  0  0
 17 19  1  0  0  0
 17 57  1  0  0  0
 19 23  1  0  0  0
 19 20  1  0  0  0
 20 21  2  0  0  0
 20 58  1  0  0  0
 21 22  1  0  0  0
 22 27  1  0  0  0
 22 23  2  0  0  0
 23 24  1  0  0  0
 24 25  2  0  0  0
 25 26  1  0  0  0
 25 30  1  0  0  0
 26 27  2  0  0  0
 27 28  1  0  0  0
 28 29  1  0  0  0
 29 59  1  0  0  0
 29 60  1  0  0  0
 29 61  1  0  0  0
 30 62  1  0  0  0
 30 63  1  0  0  0
 31 64  1  0  0  0
 31 65  1  0  0  0
 31 66  1  0  0  0
 33 67  1  0  0  0
 34 35  1  0  0  0
 35 40  1  0  0  0
 35 36  2  0  0  0
 36 37  1  0  0  0
 36 68  1  0  0  0
 37 38  2  0  0  0
 37 69  1  0  0  0
 38 39  1  0  0  0
 38 70  1  0  0  0
 39 40  2  0  0  0
 39 71  1  0  0  0
 40 72  1  0  0  0
M  END
> <s_m_entry_id>
78

> <s_m_entry_name>
entry

> <i_lp_mmshare_version>
47013

> <i_f3d_flags>
0

> <s_epik_input>
W2NIXTFbY0hdW2NIXVtjSF1bY0hdYzFPW1BAQF0oPU8pKFtOSF1bQ0BIXShbQ0gzXSlDKD1PKU9bQ0hdKFtDSDNdKVtDSDNdKU9bQ0gyXVtDQEhdKFtDQEBIXShbT0hdKVtDQF0yKEYpW0NIM10pT1tDQEhdMm4oW2NIXW4zKWMoYzM0KW5jKFtOSDJdKW5jNE9bQ0gzXQ==

> <s_epik_cmdline>
J2VwaWtfcHl0aG9uJywgJy1waCcsICc3LjQnLCAnLXRuJywgJzgnLCAnLW1hJywgJzIwMCcsICctaW1hZScsICc8aW5maWxlLm1hZT4nLCAnLW9tYWUnLCAnPG91dGZpbGUubWFlPic=

> <r_epik_Ionization_Penalty>
  0.0005

> <r_epik_Ionization_Penalty_Charging>
  0.0000

> <r_epik_Ionization_Penalty_Neutral>
  0.0005

> <r_epik_State_Penalty>
  0.0003

> <r_epik_Charging_Adjusted_Penalty>
0.000253724298483165

> <i_epik_Tot_Q>
0

> <i_epik_Tot_abs_Q>
0

> <s_lp_Force_Field>
OPLS3e

> <r_lp_Energy>
14.226104

> <b_lp_Chiralities_Consistent>
1

> <s_lp_Variant>
146156731-1

> <s_m_job_name>
ligprep_24

> <s_m_Source_Path>
/home/andre/Documents/projects/Esterase/data/FINAL_STUFF/Compounds/MAE_external

> <s_m_Source_File>
78.mae

> <i_m_Source_File_Index>
1

> <r_lp_tautomer_probability>
0.999999999803995

> <s_epik_Chemistry_Notes>
This compound has an ester and may undergo hydrolysis at high or low pH. This compound contains an acetal/aminal-like group ( X-CH(R)-Y where X, Y are N, S, or O) that may be acid/base labile, releasing an aldehyde.

$$$$
