81
                    3D
 Schrodinger Suite 2021-1.
 46 49  0  0  1  0            999 V2000
   -4.0495   -1.1728   -1.0771 C   0  0  0  0  0  0
   -4.6279   -1.3899    0.1864 C   0  0  0  0  0  0
   -6.0027   -1.5770    0.3264 C   0  0  0  0  0  0
   -6.8225   -1.5484   -0.8005 C   0  0  0  0  0  0
   -6.2665   -1.3343   -2.0614 C   0  0  0  0  0  0
   -4.8901   -1.1482   -2.1998 C   0  0  0  0  0  0
   -2.5691   -0.9791   -1.2073 C   0  0  0  0  0  0
   -1.8656   -1.0153    0.0943 C   0  0  0  0  0  0
   -2.5249   -1.2723    1.2519 C   0  0  0  0  0  0
   -3.8739   -1.4332    1.3417 O   0  0  0  0  0  0
   -1.9193   -1.3262    2.5993 C   0  0  0  0  0  0
   -2.1857   -2.4164    3.4358 C   0  0  0  0  0  0
   -1.6135   -2.4883    4.7033 C   0  0  0  0  0  0
   -0.7732   -1.4670    5.1393 C   0  0  0  0  0  0
   -0.5041   -0.3736    4.3202 C   0  0  0  0  0  0
   -1.0782   -0.3036    3.0540 C   0  0  0  0  0  0
   -2.0248   -0.8090   -2.2997 O   0  0  0  0  0  0
   -0.5060   -0.8867    0.0609 O   0  0  0  0  0  0
    0.0991    0.3277   -0.1786 C   0  0  0  0  0  0
   -0.5115    1.3877   -0.3511 O   0  0  0  0  0  0
    1.5924    0.2311   -0.1538 C   0  0  0  0  0  0
    2.2374   -1.0074   -0.0223 C   0  0  0  0  0  0
    3.6276   -1.0770    0.0059 C   0  0  0  0  0  0
    4.3884    0.0887   -0.0942 C   0  0  0  0  0  0
    3.7547    1.3248   -0.2280 C   0  0  0  0  0  0
    2.3646    1.3957   -0.2587 C   0  0  0  0  0  0
    5.9075    0.0102   -0.0547 C   0  0  0  0  0  0
    6.4624   -0.0186    1.3765 C   0  0  0  0  0  0
   -6.4314   -1.7443    1.3035 H   0  0  0  0  0  0
   -7.8880   -1.6931   -0.6976 H   0  0  0  0  0  0
   -6.9028   -1.3130   -2.9342 H   0  0  0  0  0  0
   -4.4852   -0.9843   -3.1887 H   0  0  0  0  0  0
   -2.8335   -3.2145    3.1020 H   0  0  0  0  0  0
   -1.8192   -3.3331    5.3441 H   0  0  0  0  0  0
   -0.3280   -1.5218    6.1217 H   0  0  0  0  0  0
    0.1445    0.4179    4.6654 H   0  0  0  0  0  0
   -0.8737    0.5560    2.4337 H   0  0  0  0  0  0
    1.6772   -1.9279    0.0598 H   0  0  0  0  0  0
    4.1114   -2.0376    0.1092 H   0  0  0  0  0  0
    4.3362    2.2321   -0.3053 H   0  0  0  0  0  0
    1.8987    2.3660   -0.3605 H   0  0  0  0  0  0
    6.2343   -0.8773   -0.5987 H   0  0  0  0  0  0
    6.3314    0.8546   -0.6006 H   0  0  0  0  0  0
    7.5512   -0.0758    1.3698 H   0  0  0  0  0  0
    6.0895   -0.8818    1.9291 H   0  0  0  0  0  0
    6.1818    0.8794    1.9282 H   0  0  0  0  0  0
  1  2  1  0  0  0
  1  6  2  0  0  0
  1  7  1  0  0  0
  2  3  2  0  0  0
  2 10  1  0  0  0
  3  4  1  0  0  0
  3 29  1  0  0  0
  4  5  2  0  0  0
  4 30  1  0  0  0
  5  6  1  0  0  0
  5 31  1  0  0  0
  6 32  1  0  0  0
  7  8  1  0  0  0
  7 17  2  0  0  0
  8  9  2  0  0  0
  8 18  1  0  0  0
  9 10  1  0  0  0
  9 11  1  0  0  0
 11 16  2  0  0  0
 11 12  1  0  0  0
 12 13  2  0  0  0
 12 33  1  0  0  0
 13 14  1  0  0  0
 13 34  1  0  0  0
 14 15  2  0  0  0
 14 35  1  0  0  0
 15 16  1  0  0  0
 15 36  1  0  0  0
 16 37  1  0  0  0
 18 19  1  0  0  0
 19 20  2  0  0  0
 19 21  1  0  0  0
 21 26  2  0  0  0
 21 22  1  0  0  0
 22 23  2  0  0  0
 22 38  1  0  0  0
 23 24  1  0  0  0
 23 39  1  0  0  0
 24 25  2  0  0  0
 24 27  1  0  0  0
 25 26  1  0  0  0
 25 40  1  0  0  0
 26 41  1  0  0  0
 27 28  1  0  0  0
 27 42  1  0  0  0
 27 43  1  0  0  0
 28 44  1  0  0  0
 28 45  1  0  0  0
 28 46  1  0  0  0
M  END
> <s_m_entry_id>
81

> <s_m_entry_name>
entry

> <i_lp_mmshare_version>
47013

> <i_f3d_flags>
0

> <s_epik_input>
W2NIXTFbY0hdW2NIXVtjSF1jKGMxMilvYygtYzNbY0hdW2NIXVtjSF1bY0hdW2NIXTMpYyhjMj1PKU9DKD1PKWM0W2NIXVtjSF1jKFtjSF1bY0hdNClbQ0gyXVtDSDNd

> <s_epik_cmdline>
J2VwaWtfcHl0aG9uJywgJy1waCcsICc3LjQnLCAnLXRuJywgJzgnLCAnLW1hJywgJzIwMCcsICctaW1hZScsICc8aW5maWxlLm1hZT4nLCAnLW9tYWUnLCAnPG91dGZpbGUubWFlPic=

> <r_epik_Ionization_Penalty>
  0.0000

> <r_epik_Ionization_Penalty_Charging>
  0.0000

> <r_epik_Ionization_Penalty_Neutral>
  0.0000

> <r_epik_State_Penalty>
  0.0000

> <r_epik_Charging_Adjusted_Penalty>
0

> <i_epik_Tot_Q>
0

> <i_epik_Tot_abs_Q>
0

> <s_lp_Force_Field>
OPLS3e

> <r_lp_Energy>
33.287289

> <b_lp_Chiralities_Consistent>
1

> <s_lp_Variant>
M87-1

> <s_m_job_name>
ligprep_30

> <s_m_Source_Path>
/home/andre/Documents/projects/Esterase/data/FINAL_STUFF/Compounds/MAE_external

> <s_m_Source_File>
81.mae

> <i_m_Source_File_Index>
1

> <r_lp_tautomer_probability>
1

$$$$
