83
                    3D
 Schrodinger Suite 2021-1.
 41 44  0  0  1  0            999 V2000
   -5.3373    5.3348   -0.7089 C   0  0  0  0  0  0
   -4.3940    4.3470   -0.3947 C   0  0  0  0  0  0
   -3.2897    4.6281    0.4535 C   0  0  0  0  0  0
   -3.1280    5.9147    0.9903 C   0  0  0  0  0  0
   -4.0738    6.8903    0.6700 C   0  0  0  0  0  0
   -5.1567    6.6054   -0.1618 C   0  0  0  0  0  0
   -2.4533    3.5809    0.6777 N   0  0  0  0  0  0
   -2.8455    2.5063    0.0464 C   0  0  0  0  0  0
   -4.3113    2.6669   -0.9032 S   0  0  0  0  0  0
   -2.1007    1.2076    0.0784 C   0  0  0  0  0  0
   -2.8267    0.0253    0.2550 C   0  0  0  0  0  0
   -2.1784   -1.2043    0.3070 C   0  0  0  0  0  0
   -0.7934   -1.2685    0.1873 C   0  0  0  0  0  0
   -0.0355   -0.0996    0.0085 C   0  0  0  0  0  0
   -0.6987    1.1383   -0.0558 C   0  0  0  0  0  0
    0.0415    2.2906   -0.2310 O   0  0  0  0  0  0
    0.2799    2.7637   -1.4946 C   0  0  0  0  0  0
   -0.0469    2.1694   -2.5277 O   0  0  0  0  0  0
    1.0042    4.0780   -1.4985 C   0  0  0  0  0  0
    1.4444    4.6133   -2.7179 C   0  0  0  0  0  0
    2.1093    5.8361   -2.7544 C   0  0  0  0  0  0
    2.3364    6.5347   -1.5723 C   0  0  0  0  0  0
    1.9030    6.0211   -0.3534 C   0  0  0  0  0  0
    1.2388    4.7979   -0.3150 C   0  0  0  0  0  0
    1.3432   -0.0901   -0.1154 O   0  0  0  0  0  0
    2.0574   -1.3210   -0.0881 C   0  0  0  0  0  0
   -6.1781    5.1232   -1.3534 H   0  0  0  0  0  0
   -2.2947    6.1500    1.6360 H   0  0  0  0  0  0
   -3.9659    7.8861    1.0744 H   0  0  0  0  0  0
   -5.8697    7.3849   -0.3876 H   0  0  0  0  0  0
   -3.9016    0.0540    0.3617 H   0  0  0  0  0  0
   -2.7506   -2.1098    0.4455 H   0  0  0  0  0  0
   -0.3246   -2.2393    0.2375 H   0  0  0  0  0  0
    1.2777    4.0887   -3.6484 H   0  0  0  0  0  0
    2.4467    6.2412   -3.6971 H   0  0  0  0  0  0
    2.8516    7.4834   -1.6014 H   0  0  0  0  0  0
    2.0801    6.5701    0.5597 H   0  0  0  0  0  0
    0.9083    4.4272    0.6449 H   0  0  0  0  0  0
    3.1223   -1.1212   -0.2057 H   0  0  0  0  0  0
    1.7529   -1.9783   -0.9041 H   0  0  0  0  0  0
    1.9229   -1.8409    0.8615 H   0  0  0  0  0  0
  1  2  2  0  0  0
  1  6  1  0  0  0
  1 27  1  0  0  0
  2  3  1  0  0  0
  2  9  1  0  0  0
  3  4  2  0  0  0
  3  7  1  0  0  0
  4  5  1  0  0  0
  4 28  1  0  0  0
  5  6  2  0  0  0
  5 29  1  0  0  0
  6 30  1  0  0  0
  7  8  2  0  0  0
  8  9  1  0  0  0
  8 10  1  0  0  0
 10 15  2  0  0  0
 10 11  1  0  0  0
 11 12  2  0  0  0
 11 31  1  0  0  0
 12 13  1  0  0  0
 12 32  1  0  0  0
 13 14  2  0  0  0
 13 33  1  0  0  0
 14 15  1  0  0  0
 14 25  1  0  0  0
 15 16  1  0  0  0
 16 17  1  0  0  0
 17 18  2  0  0  0
 17 19  1  0  0  0
 19 24  2  0  0  0
 19 20  1  0  0  0
 20 21  2  0  0  0
 20 34  1  0  0  0
 21 22  1  0  0  0
 21 35  1  0  0  0
 22 23  2  0  0  0
 22 36  1  0  0  0
 23 24  1  0  0  0
 23 37  1  0  0  0
 24 38  1  0  0  0
 25 26  1  0  0  0
 26 39  1  0  0  0
 26 40  1  0  0  0
 26 41  1  0  0  0
M  END
> <s_m_entry_id>
83

> <s_m_entry_name>
entry

> <i_lp_mmshare_version>
47013

> <i_f3d_flags>
0

> <s_epik_input>
W2NIXTFbY0hdW2NIXVtjSF1jKGMxMiluYyhzMiktYzNbY0hdW2NIXVtjSF1jKE9bQ0gzXSljM09DKD1PKWM0W2NIXVtjSF1bY0hdW2NIXVtjSF00

> <s_epik_cmdline>
J2VwaWtfcHl0aG9uJywgJy1waCcsICc3LjQnLCAnLXRuJywgJzgnLCAnLW1hJywgJzIwMCcsICctaW1hZScsICc8aW5maWxlLm1hZT4nLCAnLW9tYWUnLCAnPG91dGZpbGUubWFlPic=

> <r_epik_Ionization_Penalty>
  0.0000

> <r_epik_Ionization_Penalty_Charging>
  0.0000

> <r_epik_Ionization_Penalty_Neutral>
  0.0000

> <r_epik_State_Penalty>
  0.0000

> <r_epik_Charging_Adjusted_Penalty>
0

> <i_epik_Tot_Q>
0

> <i_epik_Tot_abs_Q>
0

> <s_lp_Force_Field>
OPLS3e

> <r_lp_Energy>
39.533655

> <b_lp_Chiralities_Consistent>
1

> <s_lp_Variant>
132535038-1

> <s_m_job_name>
ligprep_32

> <s_m_Source_Path>
/home/andre/Documents/projects/Esterase/data/FINAL_STUFF/Compounds/MAE_external

> <s_m_Source_File>
83.mae

> <i_m_Source_File_Index>
1

> <r_lp_tautomer_probability>
1

$$$$
