84
                    3D
 Schrodinger Suite 2021-1.
 48 50  0  0  1  0            999 V2000
  -10.5073    1.3098    0.0038 C   0  0  0  0  0  0
   -9.1178    1.2725    0.0889 C   0  0  0  0  0  0
   -8.4819    1.2236    1.3410 C   0  0  0  0  0  0
   -9.2697    1.2146    2.5018 C   0  0  0  0  0  0
  -10.6589    1.2515    2.4150 C   0  0  0  0  0  0
  -11.2719    1.2989    1.1667 C   0  0  0  0  0  0
   -6.9861    1.1810    1.4706 C   0  0  0  0  0  0
   -6.3442    1.1532    0.2595 O   0  0  0  0  0  0
   -6.4050    1.1673    2.5612 O   0  0  0  0  0  0
   -4.9698    1.0723    0.1960 C   0  0  0  0  0  0
   -4.2506    2.1589   -0.3008 C   0  0  0  0  0  0
   -2.8638    2.0886   -0.4027 C   0  0  0  0  0  0
   -2.1811    0.9301   -0.0177 C   0  0  0  0  0  0
   -2.9102   -0.1622    0.4711 C   0  0  0  0  0  0
   -4.2969   -0.0947    0.5702 C   0  0  0  0  0  0
   -0.7077    0.9077   -0.1404 C   0  0  0  0  0  0
    0.1308   -0.0216    0.3627 C   0  0  0  0  0  0
    1.5791   -0.0050    0.2047 C   0  0  0  0  0  0
    2.4527   -1.2174   -0.0934 C   0  0  0  0  0  0
    3.7766   -0.7278   -0.2035 O   0  0  0  0  0  0
    3.7617    0.6031   -0.0152 C   0  0  0  0  0  0
    2.4081    1.0572    0.2307 C   0  0  0  0  0  0
    2.4458   -2.2340    1.0655 C   0  0  0  0  0  0
    2.0994   -1.8664   -1.4462 C   0  0  0  0  0  0
    2.0149    2.4088    0.4738 C   0  0  0  0  0  0
    4.9204    1.2921   -0.0770 C   0  0  0  0  0  0
    4.9944    2.7040    0.1093 C   0  0  0  0  0  0
    6.1586    0.6334   -0.3368 C   0  0  0  0  0  0
    1.6690    3.4951    0.6725 N   0  0  0  0  0  0
    5.0853    3.8481    0.2560 N   0  0  0  0  0  0
    7.1567    0.0843   -0.5403 N   0  0  0  0  0  0
  -10.9902    1.3465   -0.9616 H   0  0  0  0  0  0
   -8.5513    1.2820   -0.8311 H   0  0  0  0  0  0
   -8.8162    1.1773    3.4825 H   0  0  0  0  0  0
  -11.2582    1.2425    3.3136 H   0  0  0  0  0  0
  -12.3497    1.3268    1.0997 H   0  0  0  0  0  0
   -4.7662    3.0584   -0.6049 H   0  0  0  0  0  0
   -2.3229    2.9430   -0.7841 H   0  0  0  0  0  0
   -2.4199   -1.0762    0.7693 H   0  0  0  0  0  0
   -4.8497   -0.9459    0.9403 H   0  0  0  0  0  0
   -0.2803    1.7223   -0.7081 H   0  0  0  0  0  0
   -0.2788   -0.8457    0.9261 H   0  0  0  0  0  0
    1.4562   -2.6691    1.2096 H   0  0  0  0  0  0
    2.7420   -1.7677    2.0063 H   0  0  0  0  0  0
    3.1393   -3.0540    0.8757 H   0  0  0  0  0  0
    1.0896   -2.2783   -1.4386 H   0  0  0  0  0  0
    2.7849   -2.6803   -1.6848 H   0  0  0  0  0  0
    2.1554   -1.1434   -2.2614 H   0  0  0  0  0  0
  1  2  2  0  0  0
  1  6  1  0  0  0
  1 32  1  0  0  0
  2  3  1  0  0  0
  2 33  1  0  0  0
  3  4  2  0  0  0
  3  7  1  0  0  0
  4  5  1  0  0  0
  4 34  1  0  0  0
  5  6  2  0  0  0
  5 35  1  0  0  0
  6 36  1  0  0  0
  7  8  1  0  0  0
  7  9  2  0  0  0
  8 10  1  0  0  0
 10 15  2  0  0  0
 10 11  1  0  0  0
 11 12  2  0  0  0
 11 37  1  0  0  0
 12 13  1  0  0  0
 12 38  1  0  0  0
 13 14  2  0  0  0
 13 16  1  0  0  0
 14 15  1  0  0  0
 14 39  1  0  0  0
 15 40  1  0  0  0
 16 17  2  0  0  0
 16 41  1  0  0  0
 17 18  1  0  0  0
 17 42  1  0  0  0
 18 22  2  0  0  0
 18 19  1  0  0  0
 19 20  1  0  0  0
 19 23  1  0  0  0
 19 24  1  0  0  0
 20 21  1  0  0  0
 21 22  1  0  0  0
 21 26  2  0  0  0
 22 25  1  0  0  0
 23 43  1  0  0  0
 23 44  1  0  0  0
 23 45  1  0  0  0
 24 46  1  0  0  0
 24 47  1  0  0  0
 24 48  1  0  0  0
 25 29  3  0  0  0
 26 27  1  0  0  0
 26 28  1  0  0  0
 27 30  3  0  0  0
 28 31  3  0  0  0
M  END
> <s_m_entry_id>
84

> <s_m_entry_name>
entry

> <i_lp_mmshare_version>
47013

> <i_f3d_flags>
0

> <s_epik_input>
W2NIXTFbY0hdW2NIXVtjSF1bY0hdYzFDKD1PKU9jMltjSF1bY0hdYyhbY0hdW2NIXTIpL1tDSF09W0NIXS9DKEMzKFtDSDNdKVtDSDNdKT1DKEMjTilDKE8zKT1DKEMjTilDI04=

> <s_epik_cmdline>
J2VwaWtfcHl0aG9uJywgJy1waCcsICc3LjQnLCAnLXRuJywgJzgnLCAnLW1hJywgJzIwMCcsICctaW1hZScsICc8aW5maWxlLm1hZT4nLCAnLW9tYWUnLCAnPG91dGZpbGUubWFlPic=

> <r_epik_Ionization_Penalty>
  0.0000

> <r_epik_Ionization_Penalty_Charging>
  0.0000

> <r_epik_Ionization_Penalty_Neutral>
  0.0000

> <r_epik_State_Penalty>
  0.0000

> <r_epik_Charging_Adjusted_Penalty>
0

> <i_epik_Tot_Q>
0

> <i_epik_Tot_abs_Q>
0

> <s_lp_Force_Field>
OPLS3e

> <r_lp_Energy>
21.455799

> <b_lp_Chiralities_Consistent>
1

> <s_lp_Variant>
101876881-1

> <s_m_job_name>
ligprep_33

> <s_m_Source_Path>
/home/andre/Documents/projects/Esterase/data/FINAL_STUFF/Compounds/MAE_external

> <s_m_Source_File>
84.mae

> <i_m_Source_File_Index>
1

> <r_lp_tautomer_probability>
1

$$$$
