9
                    3D
 Schrodinger Suite 2021-1.
 37 39  0  0  1  0            999 V2000
   -2.0171   -0.8577   -0.3636 C   0  0  0  0  0  0
   -0.5981   -0.8844   -0.3360 O   0  0  0  0  0  0
    0.1023    0.1906    0.1006 C   0  0  0  0  0  0
   -0.3821    1.2520    0.4989 O   0  0  0  0  0  0
    1.6375   -0.0201    0.0698 C   0  0  2  0  0  0
    2.0445   -0.0237   -1.4242 C   0  0  0  0  0  0
    2.2139   -1.2336   -2.1206 C   0  0  0  0  0  0
    2.5717   -1.2431   -3.4674 C   0  0  0  0  0  0
    2.7627   -0.0420   -4.1445 C   0  0  0  0  0  0
    2.5945    1.1672   -3.4738 C   0  0  0  0  0  0
    2.2364    1.1846   -2.1242 C   0  0  0  0  0  0
    2.0594    2.7241   -1.3519 Cl  0  0  0  0  0  0
    2.0973   -1.2106    0.8328 N   0  0  1  0  0  0
    3.5731   -1.2950    0.8495 C   0  0  0  0  0  0
    4.0554   -2.7004    1.2990 C   0  0  0  0  0  0
    3.2939   -3.1123    2.5452 C   0  0  0  0  0  0
    2.1433   -2.4543    2.9750 C   0  0  0  0  0  0
    1.6272   -1.2228    2.2389 C   0  0  0  0  0  0
    1.6052   -3.0349    4.1306 C   0  0  0  0  0  0
    2.3229   -4.1420    4.5627 C   0  0  0  0  0  0
    3.6864   -4.4749    3.5449 S   0  0  0  0  0  0
   -2.3973   -1.8033   -0.7503 H   0  0  0  0  0  0
   -2.3819   -0.0560   -1.0074 H   0  0  0  0  0  0
   -2.4249   -0.7119    0.6377 H   0  0  0  0  0  0
    2.1197    0.8328    0.5505 H   0  0  0  0  0  0
    2.0604   -2.1787   -1.6202 H   0  0  0  0  0  0
    2.6981   -2.1823   -3.9858 H   0  0  0  0  0  0
    3.0407   -0.0472   -5.1882 H   0  0  0  0  0  0
    2.7459    2.0954   -4.0053 H   0  0  0  0  0  0
    3.9882   -1.1480   -0.1470 H   0  0  0  0  0  0
    4.0037   -0.4910    1.4498 H   0  0  0  0  0  0
    3.8885   -3.4060    0.4842 H   0  0  0  0  0  0
    5.1358   -2.6919    1.4447 H   0  0  0  0  0  0
    1.9303   -0.3201    2.7723 H   0  0  0  0  0  0
    0.5382   -1.2672    2.2354 H   0  0  0  0  0  0
    0.7228   -2.6633    4.6306 H   0  0  0  0  0  0
    2.1167   -4.7675    5.4185 H   0  0  0  0  0  0
  1  2  1  0  0  0
  1 22  1  0  0  0
  1 23  1  0  0  0
  1 24  1  0  0  0
  2  3  1  0  0  0
  3  4  2  0  0  0
  3  5  1  0  0  0
  5  6  1  0  0  0
  5 13  1  0  0  0
  5 25  1  0  0  0
  6 11  1  0  0  0
  6  7  2  0  0  0
  7  8  1  0  0  0
  7 26  1  0  0  0
  8  9  2  0  0  0
  8 27  1  0  0  0
  9 10  1  0  0  0
  9 28  1  0  0  0
 10 11  2  0  0  0
 10 29  1  0  0  0
 11 12  1  0  0  0
 13 18  1  0  0  0
 13 14  1  0  0  0
 14 15  1  0  0  0
 14 30  1  0  0  0
 14 31  1  0  0  0
 15 16  1  0  0  0
 15 32  1  0  0  0
 15 33  1  0  0  0
 16 21  1  0  0  0
 16 17  2  0  0  0
 17 18  1  0  0  0
 17 19  1  0  0  0
 18 34  1  0  0  0
 18 35  1  0  0  0
 19 20  2  0  0  0
 19 36  1  0  0  0
 20 21  1  0  0  0
 20 37  1  0  0  0
M  END
> <s_m_entry_id>
9

> <s_m_entry_name>
entry

> <i_lp_mmshare_version>
47013

> <i_f3d_flags>
0

> <s_epik_input>
czFbY0hdW2NIXWMoYzEyKVtDSDJdTihbQ0gyXVtDSDJdMilbQ0BIXShDKD1PKU9bQ0gzXSljM1tjSF1bY0hdW2NIXVtjSF1jM0Ns

> <s_epik_cmdline>
J2VwaWtfcHl0aG9uJywgJy1waCcsICc3LjQnLCAnLXRuJywgJzgnLCAnLW1hJywgJzIwMCcsICctaW1hZScsICc8aW5maWxlLm1hZT4nLCAnLW9tYWUnLCAnPG91dGZpbGUubWFlPic=

> <r_epik_Ionization_Penalty>
  0.0111

> <r_epik_Ionization_Penalty_Charging>
  0.0000

> <r_epik_Ionization_Penalty_Neutral>
  0.0111

> <r_epik_State_Penalty>
  0.0085

> <r_epik_Charging_Adjusted_Penalty>
0.0085322968806903

> <i_epik_Tot_Q>
0

> <i_epik_Tot_abs_Q>
0

> <s_lp_Force_Field>
OPLS3e

> <r_lp_Energy>
31.29372

> <b_lp_Chiralities_Consistent>
1

> <s_lp_Variant>
CE_60606-1

> <s_m_job_name>
ligprep_123

> <s_m_Source_Path>
/home/andre/Documents/projects/Esterase/data/FINAL_STUFF/Compounds/MAE_external

> <s_m_Source_File>
9.mae

> <i_m_Source_File_Index>
1

> <s_epik_Chemistry_Notes>
This compound has an ester and may undergo hydrolysis at high or low pH.

$$$$
