92
                    3D
 Schrodinger Suite 2021-1.
 59 63  0  0  1  0            999 V2000
   -1.8059    5.9965    1.3323 C   0  0  0  0  0  0
   -1.6773    5.4159    0.0434 C   0  0  0  0  0  0
   -1.2467    4.0607   -0.0387 C   0  0  0  0  0  0
   -0.9481    3.3102    1.1298 C   0  0  0  0  0  0
   -1.0891    3.9308    2.3769 C   0  0  0  0  0  0
   -1.5127    5.2538    2.4737 C   0  0  0  0  0  0
   -1.9537    6.1152   -1.1678 C   0  0  0  0  0  0
   -1.8150    5.4541   -2.3909 C   0  0  0  0  0  0
   -1.3931    4.1293   -2.4551 C   0  0  0  0  0  0
   -1.1020    3.4094   -1.2913 C   0  0  0  0  0  0
   -0.6508    1.9657   -1.4073 C   0  0  0  0  0  0
   -0.4086    1.3419   -0.2027 N   0  0  0  0  0  0
   -0.4841    1.8671    1.0694 C   0  0  0  0  0  0
    0.0073   -0.0855   -0.2889 C   0  0  0  0  0  0
    1.5321   -0.2669   -0.4084 C   0  0  0  0  0  0
    1.9686   -1.5689    0.1242 N   0  0  1  0  0  0
    3.6789   -1.8759    0.4016 S   0  0  0  0  0  0
    3.8101   -3.2645    0.8572 O   0  0  0  0  0  0
    4.4196   -1.3973   -0.7715 O   0  0  0  0  0  0
    4.1143   -0.8146    1.7787 C   0  0  0  0  0  0
    4.4863    0.5101    1.5397 C   0  0  0  0  0  0
    4.8152    1.3407    2.6071 C   0  0  0  0  0  0
    4.7728    0.8476    3.9126 C   0  0  0  0  0  0
    4.4033   -0.4782    4.1507 C   0  0  0  0  0  0
    4.0699   -1.3090    3.0842 C   0  0  0  0  0  0
    5.1472    1.7548    5.0706 C   0  0  0  0  0  0
   -0.5110    1.4046   -2.4995 O   0  0  0  0  0  0
   -0.1947    1.2241    2.0846 O   0  0  0  0  0  0
   -2.3958    7.4211   -1.1576 O   0  0  0  0  0  0
   -1.4940    8.4483   -1.2536 C   0  0  0  0  0  0
   -2.1461    9.8012   -1.2726 C   0  0  0  0  0  0
   -1.3406   10.9491   -1.3202 C   0  0  0  0  0  0
   -1.9160   12.2168   -1.3482 C   0  0  0  0  0  0
   -3.3014   12.3473   -1.3289 C   0  0  0  0  0  0
   -4.1167   11.2204   -1.2802 C   0  0  0  0  0  0
   -3.5429    9.9521   -1.2516 C   0  0  0  0  0  0
   -0.2698    8.2888   -1.3104 O   0  0  0  0  0  0
   -2.1312    7.0223    1.4288 H   0  0  0  0  0  0
   -0.8727    3.3942    3.2900 H   0  0  0  0  0  0
   -1.6146    5.7101    3.4473 H   0  0  0  0  0  0
   -2.0357    5.9799   -3.3086 H   0  0  0  0  0  0
   -1.2989    3.6702   -3.4293 H   0  0  0  0  0  0
   -0.3626   -0.6395    0.5763 H   0  0  0  0  0  0
   -0.4771   -0.5860   -1.1294 H   0  0  0  0  0  0
    1.9044   -0.0856   -1.4172 H   0  0  0  0  0  0
    2.0218    0.4753    0.2218 H   0  0  0  0  0  0
    1.2940   -2.0953    0.6861 H   0  0  0  0  0  0
    4.5173    0.8991    0.5322 H   0  0  0  0  0  0
    5.1015    2.3651    2.4179 H   0  0  0  0  0  0
    4.3722   -0.8666    5.1585 H   0  0  0  0  0  0
    3.7790   -2.3311    3.2778 H   0  0  0  0  0  0
    5.3669    1.1881    5.9764 H   0  0  0  0  0  0
    4.3437    2.4623    5.2766 H   0  0  0  0  0  0
    6.0429    2.3275    4.8269 H   0  0  0  0  0  0
   -0.2623   10.8725   -1.3370 H   0  0  0  0  0  0
   -1.2892   13.0957   -1.3855 H   0  0  0  0  0  0
   -3.7475   13.3309   -1.3523 H   0  0  0  0  0  0
   -5.1912   11.3294   -1.2656 H   0  0  0  0  0  0
   -4.2019    9.0966   -1.2162 H   0  0  0  0  0  0
  1  2  2  0  0  0
  1  6  1  0  0  0
  1 38  1  0  0  0
  2  3  1  0  0  0
  2  7  1  0  0  0
  3  4  2  0  0  0
  3 10  1  0  0  0
  4  5  1  0  0  0
  4 13  1  0  0  0
  5  6  2  0  0  0
  5 39  1  0  0  0
  6 40  1  0  0  0
  7  8  2  0  0  0
  7 29  1  0  0  0
  8  9  1  0  0  0
  8 41  1  0  0  0
  9 10  2  0  0  0
  9 42  1  0  0  0
 10 11  1  0  0  0
 11 12  1  0  0  0
 11 27  2  0  0  0
 12 13  1  0  0  0
 12 14  1  0  0  0
 13 28  2  0  0  0
 14 15  1  0  0  0
 14 43  1  0  0  0
 14 44  1  0  0  0
 15 16  1  0  0  0
 15 45  1  0  0  0
 15 46  1  0  0  0
 16 17  1  0  0  0
 16 47  1  0  0  0
 17 18  2  0  0  0
 17 19  2  0  0  0
 17 20  1  0  0  0
 20 25  2  0  0  0
 20 21  1  0  0  0
 21 22  2  0  0  0
 21 48  1  0  0  0
 22 23  1  0  0  0
 22 49  1  0  0  0
 23 24  2  0  0  0
 23 26  1  0  0  0
 24 25  1  0  0  0
 24 50  1  0  0  0
 25 51  1  0  0  0
 26 52  1  0  0  0
 26 53  1  0  0  0
 26 54  1  0  0  0
 29 30  1  0  0  0
 30 31  1  0  0  0
 30 37  2  0  0  0
 31 36  2  0  0  0
 31 32  1  0  0  0
 32 33  2  0  0  0
 32 55  1  0  0  0
 33 34  1  0  0  0
 33 56  1  0  0  0
 34 35  2  0  0  0
 34 57  1  0  0  0
 35 36  1  0  0  0
 35 58  1  0  0  0
 36 59  1  0  0  0
M  END
> <s_m_entry_id>
92

> <s_m_entry_name>
entry

> <i_lp_mmshare_version>
47013

> <i_f3d_flags>
0

> <s_epik_input>
W2NIXTFbY0hdYyhbQ0gzXSlbY0hdW2NIXWMxUyg9TykoPU8pW05IXVtDSDJdW0NIMl1OKEMoPU8pYyhjMmMzNClbY0hdW2NIXVtjSF0zKUMoPU8pYzJbY0hdW2NIXWM0T0MoPU8pYzVbY0hdW2NIXVtjSF1bY0hdW2NIXTU=

> <s_epik_cmdline>
J2VwaWtfcHl0aG9uJywgJy1waCcsICc3LjQnLCAnLXRuJywgJzgnLCAnLW1hJywgJzIwMCcsICctaW1hZScsICc8aW5maWxlLm1hZT4nLCAnLW9tYWUnLCAnPG91dGZpbGUubWFlPic=

> <r_epik_Ionization_Penalty>
  0.0002

> <r_epik_Ionization_Penalty_Charging>
  0.0000

> <r_epik_Ionization_Penalty_Neutral>
  0.0002

> <r_epik_State_Penalty>
  0.0000

> <r_epik_Charging_Adjusted_Penalty>
0

> <i_epik_Tot_Q>
0

> <i_epik_Tot_abs_Q>
0

> <s_lp_Force_Field>
OPLS3e

> <r_lp_Energy>
45.019964

> <b_lp_Chiralities_Consistent>
1

> <s_lp_Variant>
M106-1

> <s_m_job_name>
ligprep_7

> <s_m_Source_Path>
/home/andre/Documents/projects/Esterase/data/FINAL_STUFF/Compounds/MAE_external

> <s_m_Source_File>
92.mae

> <i_m_Source_File_Index>
1

> <r_lp_tautomer_probability>
1

$$$$
