94
                    3D
 Schrodinger Suite 2021-1.
 49 51  0  0  1  0            999 V2000
    0.3068    2.3492    0.7902 C   0  0  0  0  0  0
   -0.3597    1.0057    0.5157 C   0  0  0  0  0  0
    0.2819   -0.1955    0.2452 C   0  0  0  0  0  0
   -0.7312   -1.1989    0.1764 C   0  0  0  0  0  0
   -1.9835   -0.5564    0.3775 C   0  0  0  0  0  0
   -1.7447    0.8090    0.5231 N   0  0  0  0  0  0
   -2.7291    1.8358    0.7241 C   0  0  0  0  0  0
   -3.7456    1.6010    1.3799 O   0  0  0  0  0  0
   -2.5627    3.1748    0.0472 C   0  0  0  0  0  0
   -2.9629    4.3440    0.7053 C   0  0  0  0  0  0
   -2.8243    5.5811    0.0815 C   0  0  0  0  0  0
   -2.2975    5.6518   -1.2066 C   0  0  0  0  0  0
   -1.9137    4.4932   -1.8783 C   0  0  0  0  0  0
   -2.0512    3.2560   -1.2553 C   0  0  0  0  0  0
   -2.1238    7.1856   -1.9784 Cl  0  0  0  0  0  0
   -3.1825   -1.2870    0.3705 C   0  0  0  0  0  0
   -3.1010   -2.6619    0.1597 C   0  0  0  0  0  0
   -1.8918   -3.3197   -0.0472 C   0  0  0  0  0  0
   -0.6970   -2.5862   -0.0400 C   0  0  0  0  0  0
   -1.9634   -4.6844   -0.2514 O   0  0  0  0  0  0
   -0.7653   -5.4180   -0.4828 C   0  0  0  0  0  0
    1.7743   -0.4360    0.0769 C   0  0  0  0  0  0
    2.2800   -0.1707   -1.3464 C   0  0  0  0  0  0
    3.1446   -0.8862   -1.8535 O   0  0  0  0  0  0
    1.7252    0.9361   -1.9194 O   0  0  0  0  0  0
    2.0001    1.3536   -3.2609 C   0  0  2  0  0  0
    1.4546    2.7841   -3.4115 C   0  0  0  0  0  0
    1.4643    0.4398   -4.2979 C   0  0  0  0  0  0
    1.0207   -0.3278   -5.1380 C   0  0  0  0  0  0
    1.3298    2.2254    1.1441 H   0  0  0  0  0  0
   -0.2046    2.9249    1.5618 H   0  0  0  0  0  0
    0.3703    2.9688   -0.1034 H   0  0  0  0  0  0
   -3.3738    4.3033    1.7044 H   0  0  0  0  0  0
   -3.1262    6.4810    0.5973 H   0  0  0  0  0  0
   -1.5123    4.5507   -2.8796 H   0  0  0  0  0  0
   -1.7549    2.3650   -1.7911 H   0  0  0  0  0  0
   -4.1442   -0.8169    0.5130 H   0  0  0  0  0  0
   -4.0160   -3.2365    0.1504 H   0  0  0  0  0  0
    0.2543   -3.0708   -0.1978 H   0  0  0  0  0  0
   -1.0094   -6.4706   -0.6250 H   0  0  0  0  0  0
   -0.0836   -5.3497    0.3663 H   0  0  0  0  0  0
   -0.2529   -5.0741   -1.3826 H   0  0  0  0  0  0
    2.3450    0.2082    0.7455 H   0  0  0  0  0  0
    2.0388   -1.4553    0.3602 H   0  0  0  0  0  0
    3.0820    1.3860   -3.4006 H   0  0  0  0  0  0
    1.6918    3.2032   -4.3905 H   0  0  0  0  0  0
    1.8893    3.4488   -2.6640 H   0  0  0  0  0  0
    0.3707    2.8179   -3.2902 H   0  0  0  0  0  0
    0.6334   -1.0030   -5.8677 H   0  0  0  0  0  0
  1  2  1  0  0  0
  1 30  1  0  0  0
  1 31  1  0  0  0
  1 32  1  0  0  0
  2  6  1  0  0  0
  2  3  2  0  0  0
  3  4  1  0  0  0
  3 22  1  0  0  0
  4 19  1  0  0  0
  4  5  2  0  0  0
  5  6  1  0  0  0
  5 16  1  0  0  0
  6  7  1  0  0  0
  7  8  2  0  0  0
  7  9  1  0  0  0
  9 14  1  0  0  0
  9 10  2  0  0  0
 10 11  1  0  0  0
 10 33  1  0  0  0
 11 12  2  0  0  0
 11 34  1  0  0  0
 12 13  1  0  0  0
 12 15  1  0  0  0
 13 14  2  0  0  0
 13 35  1  0  0  0
 14 36  1  0  0  0
 16 17  2  0  0  0
 16 37  1  0  0  0
 17 18  1  0  0  0
 17 38  1  0  0  0
 18 19  2  0  0  0
 18 20  1  0  0  0
 19 39  1  0  0  0
 20 21  1  0  0  0
 21 40  1  0  0  0
 21 41  1  0  0  0
 21 42  1  0  0  0
 22 23  1  0  0  0
 22 43  1  0  0  0
 22 44  1  0  0  0
 23 24  2  0  0  0
 23 25  1  0  0  0
 25 26  1  0  0  0
 26 27  1  0  0  0
 26 28  1  0  0  0
 26 45  1  0  0  0
 27 46  1  0  0  0
 27 47  1  0  0  0
 27 48  1  0  0  0
 28 29  3  0  0  0
 29 49  1  0  0  0
M  END
> <s_m_entry_id>
94

> <s_m_entry_name>
entry

> <i_lp_mmshare_version>
47013

> <i_f3d_flags>
0

> <s_epik_input>
W0NIXSNDW0NAQEhdKFtDSDNdKU9DKD1PKVtDSDJdYzFjKFtDSDNdKW4oYyhjMTIpW2NIXVtjSF1jKFtjSF0yKU9bQ0gzXSlDKD1PKWMzW2NIXVtjSF1jKENsKVtjSF1bY0hdMw==

> <s_epik_cmdline>
J2VwaWtfcHl0aG9uJywgJy1waCcsICc3LjQnLCAnLXRuJywgJzgnLCAnLW1hJywgJzIwMCcsICctaW1hZScsICc8aW5maWxlLm1hZT4nLCAnLW9tYWUnLCAnPG91dGZpbGUubWFlPic=

> <r_epik_Ionization_Penalty>
  0.0000

> <r_epik_Ionization_Penalty_Charging>
  0.0000

> <r_epik_Ionization_Penalty_Neutral>
  0.0000

> <r_epik_State_Penalty>
  0.0000

> <r_epik_Charging_Adjusted_Penalty>
0

> <i_epik_Tot_Q>
0

> <i_epik_Tot_abs_Q>
0

> <s_lp_Force_Field>
OPLS3e

> <r_lp_Energy>
41.852316

> <b_lp_Chiralities_Consistent>
1

> <s_lp_Variant>
Indomethacin_alkine_a-1

> <s_m_job_name>
ligprep_16

> <s_m_Source_Path>
/home/andre/Documents/projects/Esterase/data/FINAL_STUFF/Compounds/MAE_external

> <s_m_Source_File>
94.mae

> <i_m_Source_File_Index>
1

> <r_lp_tautomer_probability>
1

> <s_epik_Chemistry_Notes>
This compound has an ester and may undergo hydrolysis at high or low pH.

$$$$
