97
                    3D
 Schrodinger Suite 2021-1.
 37 39  0  0  1  0            999 V2000
   -2.0529   -1.0862   -0.3013 C   0  0  0  0  0  0
   -0.6604   -1.0262   -0.2463 C   0  0  0  0  0  0
   -0.0081    0.1183    0.2259 C   0  0  0  0  0  0
   -0.7840    1.2115    0.6362 C   0  0  0  0  0  0
   -2.1770    1.1593    0.5811 C   0  0  0  0  0  0
   -2.8209    0.0044    0.1219 C   0  0  0  0  0  0
   -2.8999    2.2335    0.9755 F   0  0  0  0  0  0
   -2.6541   -2.2072   -0.7643 F   0  0  0  0  0  0
   -4.1966   -0.0483    0.0573 O   0  0  0  0  0  0
   -4.8992   -0.4927    1.1348 C   0  0  0  0  0  0
   -6.4101   -0.4928    0.8634 C   0  0  0  0  0  0
   -4.4262   -0.8599    2.2154 O   0  0  0  0  0  0
    1.4713    0.1171    0.2750 C   0  0  0  0  0  0
    2.2757    0.8758    1.0599 C   0  0  0  0  0  0
    2.0190    1.7964    2.0117 N   0  0  0  0  0  0
    3.1293    2.2038    2.4503 C   0  0  0  0  0  0
    4.1722    1.6051    1.8453 N   0  0  0  0  0  0
    3.7074    0.7325    0.9365 C   0  0  0  0  0  0
    4.3627   -0.0009    0.1906 O   0  0  0  0  0  0
    3.3355    3.2460    3.5352 C   0  0  0  0  0  0
    5.6022    1.8105    2.0823 C   0  0  0  0  0  0
   -7.2523   -1.5784    1.5185 C   0  0  0  0  0  0
   -7.3435   -0.1711    2.0217 C   0  0  0  0  0  0
   -0.0870   -1.8828   -0.5714 H   0  0  0  0  0  0
   -0.3193    2.1198    0.9881 H   0  0  0  0  0  0
   -6.6743   -0.1512   -0.1380 H   0  0  0  0  0  0
    1.9287   -0.5716   -0.4242 H   0  0  0  0  0  0
    3.9010    4.0977    3.1564 H   0  0  0  0  0  0
    3.8826    2.8268    4.3800 H   0  0  0  0  0  0
    2.3840    3.6229    3.9125 H   0  0  0  0  0  0
    6.2290    1.1883    1.4415 H   0  0  0  0  0  0
    5.8486    1.5763    3.1183 H   0  0  0  0  0  0
    5.8685    2.8518    1.8987 H   0  0  0  0  0  0
   -8.0857   -1.9919    0.9504 H   0  0  0  0  0  0
   -6.7687   -2.3324    2.1414 H   0  0  0  0  0  0
   -6.9239    0.0699    2.9996 H   0  0  0  0  0  0
   -8.2409    0.4099    1.8087 H   0  0  0  0  0  0
  1  2  2  0  0  0
  1  6  1  0  0  0
  1  8  1  0  0  0
  2  3  1  0  0  0
  2 24  1  0  0  0
  3  4  2  0  0  0
  3 13  1  0  0  0
  4  5  1  0  0  0
  4 25  1  0  0  0
  5  6  2  0  0  0
  5  7  1  0  0  0
  6  9  1  0  0  0
  9 10  1  0  0  0
 10 11  1  0  0  0
 10 12  2  0  0  0
 11 22  1  0  0  0
 11 23  1  0  0  0
 11 26  1  0  0  0
 13 14  2  0  0  0
 13 27  1  0  0  0
 14 18  1  0  0  0
 14 15  1  0  0  0
 15 16  2  0  0  0
 16 17  1  0  0  0
 16 20  1  0  0  0
 17 18  1  0  0  0
 17 21  1  0  0  0
 18 19  2  0  0  0
 20 28  1  0  0  0
 20 29  1  0  0  0
 20 30  1  0  0  0
 21 31  1  0  0  0
 21 32  1  0  0  0
 21 33  1  0  0  0
 22 23  1  0  0  0
 22 34  1  0  0  0
 22 35  1  0  0  0
 23 36  1  0  0  0
 23 37  1  0  0  0
M  END
> <s_m_entry_id>
97

> <s_m_entry_name>
entry

> <i_lp_mmshare_version>
47013

> <i_f3d_flags>
0

> <s_epik_input>
Tz1DMU4oW0NIM10pQyhbQ0gzXSk9Ti9DMT1bQ0hdXGMoW2NIXWMyRilbY0hdYyhGKWMyT0MoPU8pW0NIXTNbQ0gyXVtDSDJdMw==

> <s_epik_cmdline>
J2VwaWtfcHl0aG9uJywgJy1waCcsICc3LjQnLCAnLXRuJywgJzgnLCAnLW1hJywgJzIwMCcsICctaW1hZScsICc8aW5maWxlLm1hZT4nLCAnLW9tYWUnLCAnPG91dGZpbGUubWFlPic=

> <r_epik_Ionization_Penalty>
  0.0001

> <r_epik_Ionization_Penalty_Charging>
  0.0000

> <r_epik_Ionization_Penalty_Neutral>
  0.0001

> <r_epik_State_Penalty>
  0.4107

> <r_epik_Charging_Adjusted_Penalty>
0.410679838952604

> <i_epik_Tot_Q>
0

> <i_epik_Tot_abs_Q>
0

> <s_lp_Force_Field>
OPLS3e

> <r_lp_Energy>
31.485182

> <b_lp_Chiralities_Consistent>
1

> <s_lp_Variant>
M116-1

> <s_m_job_name>
ligprep_25

> <s_m_Source_Path>
/home/andre/Documents/projects/Esterase/data/FINAL_STUFF/Compounds/MAE_external

> <s_m_Source_File>
97.mae

> <i_m_Source_File_Index>
1

> <r_lp_tautomer_probability>
0.5

> <s_epik_Chemistry_Notes>
This compound has an imine and may undergo hydrolysis.

$$$$
